     193
 CELL 12.4294 12.4294 12.4294 90.0 90.0 90.0 i =    76920, time =    38460.000, E =     -1096.5192102772
  O         4.6949057518       -0.8922131500       37.8743942236
  H         4.1136689395       -0.2264798063       37.3470085723
  H         4.2495822751       -0.8782362869       38.7549736630
  O         5.3097826820       -8.5400427988       35.0750086341
  H         5.8591194163       -9.3602668142       35.2202093990
  H         5.8631603416       -7.7460339634       35.3776610467
  O         9.3838008972       -4.5520176586       36.0126151791
  H        10.3470474797       -4.6108383358       35.9680643324
  H         9.1836345117       -5.5237963159       36.2079971781
  O         7.4313363340       -0.9428157335       37.5128446928
  H         7.3834714073       -0.1232317162       38.0647607552
  H         6.5364325269       -1.2741637467       37.4816506417
  O        -5.3432190972       -5.7740268123       32.2267122875
  H        -5.0659571459       -5.1334293956       32.9554878351
  H        -4.7339167964       -5.5227057345       31.4716526128
  O        14.0811863563       -4.1276417940       44.3425332067
  H        13.8687654139       -4.2400109249       43.3581292211
  H        14.8498661225       -4.7098100443       44.4518525228
  O         6.3392771799       -2.7960638688       27.2572092478
  H         6.8199384066       -2.0194025557       26.9738914671
  H         6.9284613898       -3.2466807217       27.8945131021
  O        13.0489890047        3.3387749966       38.5113553000
  H        12.6982019413        4.2407298123       38.9325446540
  H        13.3378410109        3.4681490244       37.5918694511
  O         1.8304975348       -7.4973640800       28.7043282033
  H         2.4613088064       -7.1394666336       27.9643220790
  H         1.8070435531       -8.4967182129       28.6405855400
  O         9.1075203407       -3.0254694666       28.7535141805
  H         9.0004350510       -3.0723554086       27.7447938873
  H         9.0249478382       -3.9883159596       29.0362330663
  O         8.6154638382       -5.7034724894       29.6809161482
  H         9.4959091331       -6.1853489566       29.5657636304
  H         7.8914463369       -6.2011769985       29.2753381025
  O         0.4770089345        5.0736384648       31.8690536461
  H         1.4274065784        5.1170712237       31.5336405507
  H        -0.2064145555        5.0730379889       31.1364745616
  O        -2.6758473100        0.4165476732       40.5948465008
  H        -2.2194651000        0.6377736989       39.7035143826
  H        -2.1213424395       -0.2548129915       40.9908011213
  O         5.4468933535       -2.5513702207       31.6401985208
  H         6.2821968898       -2.3409953421       31.0756269196
  H         5.6916229753       -2.1852810696       32.5460150427
  O         5.7532737241        0.6602046896       32.5521061877
  H         5.1528334149        1.4232793417       32.4967968489
  H         6.4500493954        0.8001466383       31.9040041266
  O        16.2483956100       -2.4073492310       35.3493093037
  H        15.9507403253       -2.3307811378       36.2290245198
  H        15.4113853250       -2.4268755886       34.8439640184
  O        13.8728394802       -4.8011153846       29.1781746002
  H        13.8777654741       -5.7725308029       29.2972767613
  H        12.9010619619       -4.6349582185       29.0320734890
  O         8.9129464986        2.4923723717       37.3429875950
  H         8.4554087008        2.2713117359       36.5122276796
  H         8.2523885536        2.1830911630       37.9977786211
  O         6.0664450259       -1.4474976020       34.1357877219
  H         5.8755282151       -0.5771271781       33.7002758867
  H         5.2840513287       -1.8724258108       34.5959137191
  O         9.4392320469       -6.9545821381       37.9483917733
  H         8.5708556855       -6.6909693277       38.3311739053
  H         9.1675272120       -7.8592040849       37.6556573485
  O        13.9294531064        4.0330859380       23.6612193368
  H        14.1440615353        3.2579074107       23.0722669961
  H        13.3382012972        4.6953046312       23.1802885216
  O         3.9549334694        4.2189787431       37.5606646111
  H         4.4424697930        4.0360638978       36.7366769767
  H         3.0333309471        4.3551158328       37.3201168709
  O        12.8448572242       -0.3952264563       37.2239364783
  H        12.1617244037        0.2785527177       37.5544533556
  H        12.9778615299       -1.0464483632       37.9454431744
  O         5.0181462810       -9.9917954370       27.0842644324
  H         4.8915260939       -9.1669361518       26.5404737244
  H         4.1313368631      -10.2081745246       27.5440694748
  O         2.0160814226        2.2195330379       34.1919017457
  H         2.7280974219        2.8241141205       33.6590811890
  H         2.5280251879        1.7407061563       34.8376242889
  O        12.4464267511       -4.7715113132       23.3414128869
  H        13.0858679355       -4.8824598292       24.1582481236
  H        12.8778387625       -3.9448990318       23.0174212481
  O        10.6071283350      -10.1548247874       42.2819311470
  H        10.4924940325      -10.8240794340       41.5850278731
  H         9.7834469991      -10.0469889544       42.7813774795
  O        11.5501534537       -1.7833986735       29.1598465738
  H        10.6914371478       -2.3217912760       29.1198986659
  H        11.6799157721       -1.4724791301       30.1025584905
  O         4.3757391925       -5.1646544868       32.0554585392
  H         5.2408325193       -5.5885618697       32.1424158327
  H         4.5922377826       -4.1902429711       31.9147956576
  O         2.9149566774      -11.3170513390       36.7829810254
  H         2.0437033567      -11.7693345363       37.0740400746
  H         3.0699634073      -10.5105946656       37.3691130807
  O         1.2825103320       -2.5656484645       34.1642147739
  H         0.9495824409       -1.6668184644       33.9679981988
  H         1.4676121922       -3.0188427305       33.2938411787
  O         0.7290725113       -2.4000909072       39.6354113319
  H         1.6061566839       -2.2538308910       40.0423257233
  H         0.0930657713       -2.1614320176       40.3564933901
  O        10.9879790644       -7.3786925856       29.6723468639
  H        11.4076176161       -7.1710747612       28.7844522338
  H        10.8838007061       -8.3522326179       29.7356268527
  O         3.1442762274       -1.0830894000       28.0217142277
  H         3.4058358378       -1.3071786647       28.9183296483
  H         2.6440929060       -0.2432017468       28.1191870536
  O        15.6918562526       -1.4884445029       30.8491808804
  H        15.0784087227       -2.2704499337       30.9658685531
  H        16.6369884260       -1.7225032190       31.2441031222
  O        14.5620927226        1.8673524567       27.9752323367
  H        13.9939521302        2.0308068048       27.2209248994
  H        14.0003127565        1.6893326073       28.7842701346
  O         8.8901848269       -7.9028745616       33.6897351866
  H         9.7068493532       -7.3186478943       33.7290887130
  H         8.2010318694       -7.3991703007       34.1224657408
  O        11.4800234298       -0.9118760120       31.5931483521
  H        12.3023785399       -0.4032557091       31.9060920695
  H        11.3790911867       -1.7749730604       32.1253622164
  O        11.7586553165       -6.6274120981       39.6348346736
  H        12.3000620913       -5.9100771722       39.1871661808
  H        10.9077997513       -6.7485039176       39.1153916930
  O        15.4142728364       -7.2349957058       31.2485144542
  H        15.8887144565       -6.3385855910       31.3970456530
  H        15.2328453440       -7.2753321823       30.2769495098
  O        -3.7544531385       -0.6598243228       22.5385429616
  H        -4.2464705392       -0.8421399304       23.3767914142
  H        -2.8024034125       -0.7089359741       22.6578606207
  O        11.1286188556        1.4852082879       38.3264011079
  H        11.7793735579        2.2506669770       38.5644002712
  H        10.3616899872        1.8522900633       37.7885918010
  O         8.9241852133       -0.1210194422       44.5990565815
  H         9.9077985641       -0.3729897392       44.5252654021
  H         8.5286837851       -0.6364934866       45.3327531436
  O         6.1958494537        3.0697015738       29.6122845798
  H         5.8827673895        2.5685452036       28.8088958678
  H         7.1127480553        2.9254566505       29.7852981873
  O        13.0303827998        1.6396432318       30.1253768451
  H        13.4465517319        1.1475507814       30.8543168635
  H        12.0270109716        1.7144787798       30.1801301895
  O        19.7866666719       -1.2247629825       30.0179237557
  H        20.3702056898       -0.7232131946       30.6048584318
  H        20.3520151608       -1.8477432792       29.4684900625
  O        11.7151117667        2.3826345555       33.1596988887
  H        12.1380735425        2.9248553603       32.4739171785
  H        11.7483671164        3.0188215834       33.9259660705
  O        13.5763892851       -4.6089364749       38.2501776198
  H        14.2733083854       -5.1884551906       38.6207146677
  H        13.4203812551       -3.7775903936       38.8665695547
  O         4.1761998632        3.2046804363       32.6318713706
  H         4.7411282932        3.6302255019       33.3065765464
  H         3.9548672296        3.8736008145       31.9738891443
  O        -0.9248194554       -0.5119606536       34.5655603617
  H        -0.9714379353        0.2952471447       34.0309304784
  H        -0.5296478050       -0.2860007766       35.4087704123
  O        16.8498999000       -4.2707106024       28.3276942245
  H        16.1473895954       -3.9729520208       28.9936126766
  H        17.1309935625       -3.4047804193       27.9780637818
  O         7.3281301700       -4.0054099990       34.4526106093
  H         6.7370984653       -3.2285961380       34.4180595319
  H         8.0445693433       -3.6649954593       34.9056450610
  O         1.3937818976        0.1940733979       32.3427647862
  H         1.6502375449        0.9851603464       32.8733532822
  H         2.2410907905       -0.3634774700       32.1492337433
  O         7.4626506940        1.1119991327       39.3189734860
  H         8.1677378028        0.8829892882       39.9922887103
  H         6.6871168344        1.5842056655       39.6666831159
  O         8.5820969298        2.6718517152       31.4329783820
  H         8.5452082764        1.7755043508       31.8774773547
  H         8.6069451058        3.3341350929       32.1993209863
  O         6.6869324868       -6.5847420931       38.6906736805
  H         6.0475229274       -5.9476811592       38.3116450217
  H         6.6901830710       -6.6242953738       39.7021033562
  O         3.3127423364       -6.2574155042       39.2857294970
  H         3.8093566355       -5.4154640823       39.6037114624
  H         3.8195688891       -6.7554499267       38.5723702524
  O        -0.5156586944       -7.0985720334       34.4217687481
  H        -0.3479037571       -6.0898187642       34.7464565675
  H        -0.0580586808       -7.1271029798       33.5090969542
  O         7.7593425937        1.9444371476       34.9478509772
  H         8.2623078076        1.1046254133       34.8506348460
  H         8.2632313381        2.6200214065       34.5082244041
  O         9.5661359043       -2.8151861863       38.1553929431
  H         9.6309804628       -3.3910344600       37.4016587322
  H         9.3052846611       -1.9420633453       37.7841519503
  O        19.6241694864       -6.5558695969       23.2347456711
  H        19.2455150789       -5.6868763634       22.9798581949
  H        19.5736157721       -6.5767622274       24.2183809472
  O         5.6706329171       -4.4477810265       24.9292963608
  H         5.0355616891       -4.0883109783       24.3318139212
  H         5.9675409115       -3.7110529784       25.4593536601
  O         6.2076326233       -6.7008082826       29.0157827712
  H         6.0468983730       -7.6478714631       29.2910016821
  H         5.6757291869       -6.0209573407       29.4188086644
  N        11.0646307666       -3.4509692186       32.8390449163
  H        11.7287161827       -4.0297366749       32.2794468007
  H        11.5386505876       -3.3796631259       33.7894326251
  H        10.2460880564       -4.0549527474       32.9843746699
