     193
 CELL 12.4294 12.4294 12.4294 90.0 90.0 90.0 i =    92120, time =    46060.000, E =     -1096.5345194798
  O         6.8259808913       -0.6699653831       46.1636081304
  H         6.0940096007       -1.0686143453       45.7146898666
  H         6.2823054837       -0.0051262008       46.6915548088
  O         8.8470632835       -8.5079415098       42.7925780525
  H         9.7962556079       -8.7511075808       43.1097233613
  H         8.8477954110       -7.6088424088       42.5048124552
  O        10.2769386981       -1.9421567959       46.6399883689
  H        10.3109461653       -2.3120049107       45.7913631907
  H        10.8877371925       -2.4845137573       47.2488454922
  O         8.3431843900        0.7916472728       44.5006824667
  H         7.7286156382        0.2916481731       45.1192950829
  H         8.0545309196        1.7649611259       44.7614617940
  O        -2.3767810717       -5.6188924648       42.8854642887
  H        -1.7902396015       -6.0820846606       42.1659013933
  H        -2.0802182234       -4.6625888187       42.9581222686
  O        17.1640432374       -1.8076581261       52.5670902040
  H        17.6546148549       -1.1146614685       52.0955397402
  H        17.3517050052       -2.6229048888       52.0471411520
  O         7.3783815874       -0.0959317674       37.0464716934
  H         8.2893050334       -0.2008629433       37.4770592504
  H         7.0925210799       -1.0253186638       36.8269288772
  O        14.0231287264        4.4857676993       46.5091859392
  H        13.8597353627        5.4252800545       46.8267640992
  H        14.0425165290        4.5409985686       45.5517766624
  O         6.0725047868       -7.8689919551       35.0033681719
  H         5.7731240528       -7.0443161490       34.5726567392
  H         5.1974870940       -8.2401928791       35.2627966443
  O        12.1800790384       -2.8595347013       35.8942245794
  H        12.2167326539       -1.9048311947       36.2444114802
  H        12.0402086540       -3.4429137423       36.6971009939
  O        11.5935382823       -4.6291635628       38.1327274566
  H        10.6985039413       -4.9774776407       37.9923614415
  H        12.2620993852       -5.3436719315       37.9169121889
  O         3.3634890034        6.2190086316       39.9238126850
  H         4.3218075389        5.9891977253       39.9130716294
  H         3.0471420089        5.4081601477       39.4209326311
  O        -0.0712831835       -0.1453714424       49.4362982662
  H         0.2373430923        0.6840857221       48.9575105809
  H         0.6745478034       -0.3757716826       50.0241104724
  O         7.8331137732       -2.1382153150       40.9390873395
  H         7.8282465318       -1.8053192581       40.0558423032
  H         7.5920477786       -1.3806728074       41.5447498664
  O         8.0400972913        2.3372135355       40.5773206949
  H         8.5222477082        2.8615409887       41.2377028360
  H         8.2893329706        2.5830534608       39.6400768763
  O        17.1215989692       -0.7679783993       43.8821252770
  H        17.0423697711        0.1698679664       44.1840387831
  H        16.3591018766       -0.8382644529       43.2713098652
  O        17.2587258937       -4.0561720995       38.4830948869
  H        16.3891716806       -4.2847138874       38.0672434360
  H        17.4736631088       -4.8583864638       39.0032844544
  O         9.9502819364        4.1062152773       45.9763414428
  H        10.4940344660        3.5602564473       45.3470550562
  H         9.2962696168        3.5290084185       46.3613744675
  O         6.7487825164        0.0925126001       42.1834396756
  H         7.2259973045        0.4457035303       42.9700777124
  H         6.1786479172       -0.6099264264       42.5992625434
  O        11.1276500933       -6.8751477030       48.3970820981
  H        10.2976032764       -6.3084270423       48.5805941569
  H        10.8543566441       -7.5371190231       47.7166861427
  O        13.9754272707        4.6016240526       31.0798553543
  H        14.6958233399        3.9189317653       30.8239420654
  H        14.1558939361        5.3904610194       30.4759261037
  O         5.1529469207        6.5149131451       43.4624660551
  H         5.9416842629        6.8005755208       42.9134013428
  H         5.0637969691        5.6787334549       42.9420258780
  O        15.1175769842        0.4907196521       46.3233932852
  H        14.5590046443        1.0184994657       47.0001551653
  H        15.6694573400       -0.1447177016       46.9445473259
  O         6.9531684331       -9.2799345221       32.6409617018
  H         7.3856941921       -8.7943028072       31.8715000631
  H         6.9970103286       -8.6968363806       33.4569617832
  O         3.6809969742        2.9445234175       42.6065798590
  H         4.4667017860        3.3992764550       42.1957882114
  H         3.9993851034        2.5607415643       43.4314790205
  O        13.7690876071       -3.1520722629       30.8766682890
  H        14.3672778189       -3.2992362071       31.6667599577
  H        14.2350666726       -2.4129915790       30.3029569981
  O        11.8649815982       -9.3411622488       50.0423136362
  H        12.1474360034       -9.8388894258       49.2285585035
  H        12.2049514877       -9.7156023312       50.8719403571
  O        15.0613363065       -3.2120002679       37.0119099579
  H        14.1069911845       -3.2472006814       36.7214999556
  H        14.9155305914       -2.5987513128       37.8486499693
  O         7.7332115987       -5.2039986494       41.7487448854
  H         8.5841995863       -5.3204927637       42.1805235482
  H         7.5396478576       -4.2708080793       41.6688624070
  O         4.3202387641      -10.5825487174       44.7743090183
  H         3.6277495633      -10.8062312255       45.4822357798
  H         5.1915543459      -10.4088385085       45.2128892979
  O         2.5291240632       -1.2572537746       41.8367020117
  H         2.3330522690       -0.3190008208       41.6652590734
  H         3.2437837202       -1.4275987177       41.1962991633
  O         3.9549673427       -1.3323066409       48.0716768026
  H         4.8161635712       -1.8229231130       48.3451993502
  H         3.3014577397       -1.9172165531       48.5889980167
  O        13.3373063840       -6.4391341692       37.4683404262
  H        13.8948002513       -6.0101214224       36.7554925027
  H        12.6876559577       -6.9947181729       36.9642348679
  O         5.7588579257        1.3014467252       35.3801343851
  H         6.0936639198        1.0017436923       36.2544181178
  H         4.9197789086        1.7352315795       35.4813281984
  O        17.9307340653        0.8814262861       39.5827499191
  H        18.6369333671        0.7140038447       38.9343387949
  H        18.4676696999        0.9837934741       40.4045460271
  O        15.9542630277        3.6432503617       35.7404578189
  H        15.2112274710        4.0387309584       35.1810984821
  H        15.8832385518        3.9087835450       36.7084160746
  O        11.8074135644       -6.9335540044       40.7846234158
  H        12.5988502110       -6.3512783671       41.1145891506
  H        11.3145010993       -6.3964953823       40.1260362126
  O        14.1903131055       -1.1967864390       38.5743178763
  H        14.7316319889       -0.3808820929       38.7695810617
  H        13.5117744619       -1.3001065679       39.2850278567
  O        13.9783641986       -5.4714485446       47.2541018754
  H        14.7454896484       -4.8473712871       47.0169824420
  H        13.0748561256       -4.9964506237       47.2542367663
  O        18.6364692323       -6.2461689330       39.7593627299
  H        19.3630676546       -5.7426680889       40.1345618079
  H        19.0445937536       -6.5891739543       38.9326294719
  O        -1.9055110049       -0.4468412729       30.8602245310
  H        -2.6068535031        0.0527732015       31.3312824426
  H        -1.0557857412       -0.0464118643       31.1813032128
  O        12.6517753613        2.3431135125       47.6443142814
  H        13.0022525277        3.2336689858       47.3708010965
  H        11.9496898416        2.0291775086       47.0505548867
  O        10.2533518623        0.7607435522       53.2088943741
  H        10.2759970973        0.1209034221       53.9960869218
  H         9.3708844727        1.1513324171       53.2168472337
  O         9.1155462996        2.9097727512       38.0914031751
  H         8.9850266136        2.6058897566       37.1623070684
  H        10.1285125552        3.0304191034       37.9137388911
  O        15.1208471887        4.0757896660       38.3959005426
  H        15.0203092009        3.1220713764       38.6421830816
  H        14.2469456753        4.4333902948       38.0920234031
  O        22.0889869023       -0.1019405189       38.2736019959
  H        22.2402464858        0.0389221870       39.2323351771
  H        22.9732385299       -0.0886790818       37.8796257930
  O        14.3522675909        1.5341862292       41.3138006692
  H        13.6132919854        2.1778380095       41.0324873792
  H        15.1161350234        2.1422874954       41.6820254066
  O        15.8021165024       -3.6716895122       46.2839245973
  H        16.7382800825       -3.9739013148       46.1807205202
  H        15.8493282488       -2.7754171207       46.7609946675
  O         6.1543243786        4.2808617187       41.7607787794
  H         6.7258672528        3.5385232485       41.4509502458
  H         6.0807893600        4.9581390200       41.0746216245
  O         0.7533113015        1.1258244498       43.9232394408
  H         1.3142501341        1.0880648312       43.1088103364
  H         1.2757575381        0.7012534359       44.6642598326
  O        18.4857826763       -2.7839262193       36.2972928527
  H        18.1224416600       -3.2268624143       37.0858415449
  H        18.8701806888       -3.5175173426       35.7571110718
  O        10.9213086197       -3.1151573780       43.6553431144
  H        10.7546390666       -2.1758027389       43.4338949532
  H        11.8544515430       -2.9606614310       43.3414028864
  O         2.9366270245        1.2847935674       38.7803961572
  H         2.5691740969        1.3645553507       39.6943825626
  H         3.9410356283        1.3244992943       38.9865535587
  O         8.6691082782        2.2986409433       47.9248531482
  H         9.1045942016        1.3802910415       47.8156918892
  H         7.6875220885        2.0235671636       47.8605960549
  O        12.3337760116        2.8510762333       40.3818967931
  H        11.6030236245        2.1746353414       40.6163743159
  H        12.0347238632        3.7921511168       40.4012351266
  O         8.9955647566       -5.4148005065       49.6135122367
  H         8.5850827469       -4.8047889188       48.8777112376
  H         8.3003115312       -6.1079635317       49.7767874835
  O         5.8496102717       -5.3880296771       45.9706062040
  H         6.7241578041       -4.9836159600       45.9664534876
  H         5.6236703383       -5.6192352600       45.0009124286
  O         1.5939606564       -5.6468203170       41.9442974831
  H         1.4759752548       -4.7717839241       42.3397335743
  H         2.4336152305       -5.8100177712       41.5027167495
  O        11.4485230777        3.3196422123       43.8089734196
  H        11.8242070465        2.3846499458       43.6079343310
  H        12.2371868192        3.8987578380       43.7024643825
  O        10.6470061410        0.5974770273       46.2381396349
  H        10.5685622103       -0.3709503905       46.3325998043
  H         9.8843982931        1.0260587469       45.7364484798
  O        21.5728516755       -5.9023431143       33.0028104816
  H        21.8553184758       -5.8545437093       32.0967288101
  H        21.8965461367       -6.7751164969       33.2870194099
  O         8.0993243281       -4.0153368637       34.8200967004
  H         8.7230119337       -4.4678541196       34.1721837914
  H         8.3774709614       -3.0904275189       34.8026238679
  O         7.4331845300       -7.4353719749       37.4037230709
  H         8.1620859052       -8.0995826417       37.5967204597
  H         6.9632473078       -7.6700656815       36.5564380941
  N        12.1934601235       -2.1967502939       40.0806845138
  H        11.3454239983       -1.8356494135       40.5662913913
  H        11.7713915830       -2.9095275198       39.4902021592
  H        12.7591167358       -2.6544846671       40.7742237270
