     193
 CELL 12.4294 12.4294 12.4294 90.0 90.0 90.0 i =    94920, time =    47460.000, E =     -1096.5489641919
  O         7.2233550073       -0.4866223274       47.6658639742
  H         6.5689000624       -0.5596403505       46.9769797968
  H         6.7197116755       -0.0684708827       48.3959727531
  O         9.9892382056       -8.2308404503       43.9770732656
  H        10.3832394594       -8.7126442581       44.7505252687
  H         9.9255378844       -7.2976787470       44.2623206456
  O        11.2126298257       -1.5890352745       48.3250273640
  H        11.1540898761       -2.3580339645       47.6858030874
  H        11.6426305760       -1.8046810176       49.2158263411
  O         8.3912288058        1.2975347498       46.1495601794
  H         7.9010204546        0.5987679369       46.6826452448
  H         7.9612263996        2.1193856919       46.4096130816
  O        -2.2465204215       -5.4401274012       44.2975334990
  H        -1.5056543504       -5.4512085959       43.6516634517
  H        -1.8843434707       -4.8479501714       44.9442476300
  O        17.2233428744       -1.3271479936       54.6105637977
  H        17.4681847112       -0.4624050070       54.1605216125
  H        17.2874568877       -2.1706661357       54.0979062012
  O         7.0744955595        0.4472011964       39.0280318638
  H         8.0478060988        0.2735887996       39.1527740890
  H         6.7745979109       -0.5521050989       38.8873866192
  O        14.1954542227        4.1175763389       48.3615637537
  H        13.5251355115        4.7780142933       48.5966324648
  H        14.1532589769        4.1492522394       47.3464754277
  O         6.3098984493       -7.2978224077       35.9774429546
  H         5.9328283960       -6.4733024810       35.6771071054
  H         5.5398876090       -7.5895028968       36.5949497148
  O        12.1696853813       -2.3478366315       38.6222067285
  H        12.6674782999       -1.6507867148       39.1019424607
  H        11.9998865259       -3.0900419523       39.2622272209
  O        11.4367190405       -4.6714759534       40.0550135729
  H        10.6889920755       -4.7425183751       39.3694369386
  H        11.8546105259       -5.5644206897       40.1437788693
  O         4.1828279474        6.1359375041       42.5920272550
  H         4.8417636156        6.7279227566       42.2181957392
  H         3.6421061699        5.7650132299       41.8043326466
  O         1.0969376601       -0.1658066823       52.1366127562
  H         1.8143690387        0.4629329603       51.8661859162
  H         1.4130301029       -0.6528301065       52.9644019741
  O         7.8128642771       -2.0859927858       42.1410491617
  H         8.4356498155       -1.3237393782       41.9546147404
  H         7.1127130905       -1.6539882520       42.6833854508
  O         7.9262682427        3.3976252216       42.2337414178
  H         8.6652841993        3.7629145183       42.7676650353
  H         8.2772705154        3.2796219223       41.3406325579
  O        17.4422640106       -0.2663884397       45.8128013244
  H        17.1159456833        0.5025686674       46.3310347013
  H        16.6741157828       -0.8219292524       45.5702865861
  O        17.8172039207       -3.6269361358       40.4450472958
  H        16.9155791063       -3.8007299226       40.0096728677
  H        18.2773106180       -4.5621299433       40.3985423005
  O        10.2028787112        4.4475579304       48.1907190347
  H        10.6634126709        3.8239126451       47.5848297085
  H         9.5107053335        3.7928407594       48.5577245275
  O         6.8205922509        0.6634672458       43.8132888537
  H         7.6252915159        0.8326989522       44.4051949382
  H         6.1058319049        0.5796246735       44.4920649066
  O        12.0866299958       -6.8968002438       49.5241706351
  H        12.1604382050       -5.9211339315       49.6293763826
  H        11.1838656248       -7.0786080816       49.1710753848
  O        14.2767029362        4.3308120584       32.9233062149
  H        15.1663675304        4.0002790706       32.6708757357
  H        14.3439986991        5.3017691720       32.7908875125
  O         6.6771757917        6.8983527729       45.0511646046
  H         7.1217326696        7.4219306713       44.3839388535
  H         6.0910980736        6.2617741836       44.5926670161
  O        14.3810674582        0.3549489231       48.4113984580
  H        13.6718010938        0.9207215071       48.8477967356
  H        14.5794629739       -0.4267684753       49.0290048363
  O         7.0888767281       -8.8845859632       34.0163036543
  H         6.6220781513       -8.5825507735       33.1904911817
  H         6.6293389626       -8.3460757979       34.7510738317
  O         4.1721290757        2.8132691554       44.6309551988
  H         4.9512876635        3.3377291005       44.2911879948
  H         4.3710711030        2.5891661093       45.5863519469
  O        13.9935831638       -3.0556671755       32.8426711861
  H        14.4820988384       -3.1477128197       33.6802889656
  H        14.4960719836       -2.3772244417       32.3167952244
  O        11.9883267931      -10.0056477458       52.1807745923
  H        12.1859055571      -10.2764440190       51.2532159567
  H        12.1571167110      -10.8523988767       52.6468486248
  O        15.1462849544       -3.6968382122       39.4615386535
  H        14.5437904634       -4.3488363249       39.1514604246
  H        14.7530515456       -3.2733548233       40.2236006790
  O         8.0103263178       -4.7619565697       42.6728088425
  H         8.8627788480       -4.9449004974       43.0608376337
  H         8.1178119902       -3.8283449160       42.4491874674
  O         4.0931312906      -10.5549605496       47.2633368029
  H         3.3341569549      -11.0920138163       47.6178660076
  H         4.7713516657      -10.5289052831       48.0384099013
  O         2.6711310824       -1.2096323656       43.8585471124
  H         2.5231479793       -0.2121534489       43.8103384318
  H         3.5565125280       -1.2930872422       43.3278050258
  O         3.4278835074       -1.7399971494       50.0220250608
  H         4.4239271255       -1.6140413822       50.1168639654
  H         3.1673735965       -2.1425042211       50.8336443676
  O        12.5442597749       -7.2505514363       39.6705206658
  H        12.2394118692       -7.3027025488       38.7078850132
  H        12.3868400309       -8.1724552181       39.9841278784
  O         6.0190762946        2.3015023676       37.2289731530
  H         6.2490125514        1.5805507395       37.9050856616
  H         5.2944025239        2.8334529058       37.5968029695
  O        18.0214134329        1.1400012137       41.4452371409
  H        18.7652692010        1.2569942751       40.8286704539
  H        18.4656128375        1.1066667834       42.3477877086
  O        16.3108053876        4.0220583466       37.4865821783
  H        15.7006939333        4.0053815483       36.7004684134
  H        15.9947547840        4.5688848319       38.1993839948
  O        12.4712889194       -5.4545539430       43.0397827127
  H        13.2079994920       -5.3824625219       43.6601035166
  H        12.8480374825       -5.7643959828       42.1948330646
  O        13.8546475316       -2.0274545698       41.4332575770
  H        14.2363733415       -1.7777594730       42.3081968894
  H        12.9114934286       -2.3224532625       41.7025901070
  O        13.1953033856       -4.4709172930       49.5522399043
  H        13.9810907079       -4.4838155401       48.9721887805
  H        12.9975281350       -3.5438793015       49.7968041503
  O        18.9347761572       -6.0671394543       40.8172230613
  H        19.6297607586       -5.6891852623       41.4101090934
  H        19.4785379246       -6.4233909128       40.0930391980
  O        -1.8870113477       -0.1058262598       32.3622393063
  H        -2.3584278817        0.4793232041       33.0203689250
  H        -0.9539799299       -0.0919896850       32.6724194269
  O        12.5554591546        2.1229814859       49.4886657431
  H        13.1353243082        2.8659135166       49.2665956631
  H        11.7865996804        2.1528010984       48.9233161663
  O         9.8310305107        1.0478118395       54.7918555127
  H         9.9869299931        0.5254621070       55.6277902757
  H         9.1074627709        1.6729959816       54.8472615809
  O         9.0413822871        2.8770951117       39.7471554533
  H         8.7978002121        2.6598692714       38.7860300482
  H         9.9967143245        2.7453131328       39.6812239329
  O        15.4532733808        4.9210615990       40.2928662545
  H        15.5179082650        3.9242752829       40.3561041451
  H        14.5272310798        5.1238580009       40.0056714529
  O        22.3261084556       -0.7711676963       39.3747232089
  H        22.7552095002       -0.0991594132       39.8814070504
  H        23.0139036425       -1.3283929819       39.0331734877
  O        14.7923885088        1.3078557884       43.2637156520
  H        13.8649738252        1.7930255639       43.3050805880
  H        15.5210863398        1.8533388176       43.6238128719
  O        15.2050759112       -3.5983167449       47.6440570640
  H        16.1260713975       -3.9757827789       47.5573955048
  H        15.2861130743       -2.9523499082       48.4095812000
  O         5.9088481819        4.4325293658       43.5960210406
  H         6.5599123214        4.1491560638       42.8550135197
  H         5.2040686651        4.8246724252       43.1119985743
  O         0.3535310496       -0.0223678548       46.0917479716
  H         1.1487288529       -0.5399213642       45.8189129093
  H         0.4587463290       -0.0985271543       47.0398783205
  O        18.8196932677       -1.9472212974       38.4671318241
  H        18.5693461432       -2.5902953668       39.1507408865
  H        19.2394852170       -2.5516972940       37.7904628956
  O        11.1950727275       -2.9589999407       45.7950344934
  H        10.8424281474       -2.1378390726       45.4082132363
  H        12.1630449755       -2.8964606756       45.6490884282
  O         3.2288615683        2.0099708528       40.5220434480
  H         2.7289135487        1.9969728406       41.3840115588
  H         4.1081273442        1.6370212324       40.7161740121
  O         8.6421757158        2.6944565748       49.4295798788
  H         9.0807997057        2.0086740741       48.9535651460
  H         7.6740792421        2.6292455984       49.2060577546
  O        12.3428887149        2.3245661724       42.9784021283
  H        11.4612871087        1.9258516836       42.6056405808
  H        12.1499952396        3.2766358922       43.2548713005
  O         9.3045085897       -4.5165491482       50.7187376059
  H         8.9074688059       -4.0051515314       50.0232100594
  H         8.8099352905       -5.3779196328       50.6845284315
  O         5.2921132622       -4.8061366603       47.5870698057
  H         5.9714954143       -4.2054968776       48.0242895187
  H         5.6037623864       -4.8378449899       46.6685196014
  O         2.3641631819       -5.6117788927       44.5190381863
  H         2.0142691451       -4.6975897646       44.7124918458
  H         3.0565627773       -5.4958782182       43.8497273539
  O        11.8055948681        3.0571869167       46.2149638126
  H        12.0815574453        2.2009577632       45.9124651730
  H        12.4497901050        3.6985959432       45.7887234621
  O        10.3151834764        1.0613035397       48.0521857144
  H        10.6051364407        0.0730169409       48.2975740983
  H         9.8806680124        1.0329389881       47.1734402122
  O        21.0952407672       -5.5816314446       34.8575966338
  H        20.5105210995       -5.9418749847       34.1581292992
  H        21.4993852306       -6.3759692372       35.2659444599
  O         7.6198043588       -3.4551963896       36.0915156077
  H         8.0946023764       -4.1804505693       35.6104217546
  H         7.7079334769       -2.5800980908       35.5254725226
  O         8.0990617550       -7.2153898973       38.6830409260
  H         8.4952022491       -7.9614705937       39.2193202676
  H         7.5710005235       -7.5615632605       37.9167890318
  N        11.3496957988       -2.6825335965       42.3711432253
  H        11.4867787923       -3.3135111762       43.2024376244
  H        10.7802926062       -1.8850482862       42.7072115980
  H        10.8092516768       -3.3387958075       41.7645430642
