     193
 CELL 12.4294 12.4294 12.4294 90.0 90.0 90.0 i =    50120, time =    25060.000, E =     -1096.4789799220
  O        -0.5286245626       -0.2886277460       23.4949529604
  H         0.3971759253       -0.1377080297       23.6490164003
  H        -0.9120248374        0.6140454488       23.4081528701
  O         1.4902820645       -8.2277849948       18.9010773687
  H         2.2213859528       -8.8541502657       19.2094778432
  H         1.2423555594       -7.6621575398       19.6975097191
  O         4.0288122928       -5.4452790591       22.1376367924
  H         4.2680504259       -5.7251927329       23.0354886717
  H         3.2563449957       -6.0207702719       21.9057708769
  O         2.7393166209       -0.7940481466       22.4853000828
  H         3.1700836673        0.0787152234       22.6040143201
  H         2.8340938432       -0.9394690572       21.5044653717
  O        -7.8964908801       -4.3821052131       18.4921175504
  H        -8.1371450731       -3.8403879370       19.2792026908
  H        -8.2711067566       -3.9258673274       17.6869572691
  O         7.7162992655       -7.0032690754       27.5213358257
  H         7.2054107932       -6.5454149526       26.8468308883
  H         7.0543214133       -7.4196907166       28.1777586060
  O        -0.9114020328       -1.9224897849       13.5850711119
  H        -1.4672001066       -1.4446246030       14.2748027981
  H        -0.9244827561       -1.4453875030       12.7677981143
  O         7.3682234704        4.2514854996       24.8047598437
  H         6.7438557155        5.0303872871       24.9893837364
  H         7.0631989606        3.6401983085       24.0741029202
  O        -2.8613456924       -6.6499032876       10.9739999581
  H        -2.1249825352       -6.2502085446       11.4691403927
  H        -3.3830585170       -7.1488804302       11.6499829445
  O         1.6810546427       -2.0089144068       14.4741032028
  H         0.8088616913       -1.5394919570       14.3059670047
  H         1.8994241069       -2.4348194795       13.6506623790
  O         3.6703220067       -4.6007411521       13.8204728847
  H         3.9665290138       -3.9921986097       14.4817470568
  H         2.8202906372       -5.0329523773       14.1185951433
  O        -6.6018216897        4.0467684701       16.8348612293
  H        -6.1115148582        3.8125331027       17.6057953654
  H        -7.4766371879        4.3502915784       17.0203112366
  O        -6.9378298082       -1.7749758909       22.8187976376
  H        -6.6754563659       -1.0470291050       23.4019242182
  H        -7.9779172554       -1.5695344488       22.7023879181
  O         0.6637139395       -4.0084147660       16.3677763621
  H         1.0503399159       -3.2651668804       15.7907774973
  H        -0.2524200486       -3.7189378052       16.6111874231
  O         0.4434966819        0.8940921614       16.1089316485
  H         0.1857339943        1.7305533922       16.6340318627
  H         0.7198657269        1.2384202294       15.1898871229
  O        13.0820665484        1.3393974610       20.1125537152
  H        12.3270476986        1.8256029604       19.7047808111
  H        12.6692940925        0.4336872977       20.2157964725
  O         6.9678258351       -3.9493204813       11.2878317554
  H         7.5176150874       -4.1526987332       10.4690903797
  H         6.3238134745       -3.2087787295       10.8339101978
  O         3.9493920648        1.9053623264       22.6457489935
  H         4.8782677997        1.8565892184       22.4711668735
  H         3.7828556965        2.5759515051       23.3512808830
  O         3.0270555331       -0.9452768766       17.4121385536
  H         2.5576085727       -0.2144094285       17.0653051818
  H         3.5817617918       -0.5785143276       18.1321669394
  O         1.6794986201       -6.9642785774       21.5236158886
  H         0.9698922882       -6.3508936356       21.8029913596
  H         1.6000263017       -7.7815049877       22.0669265785
  O         6.7104288044        2.6099210066       10.0064687553
  H         7.3580730096        2.0547487621        9.5784827416
  H         6.8556275896        3.5018796354        9.6784064307
  O         0.8278127588        2.7206818898       22.4765128415
  H         0.9170642167        2.2368970341       21.6473529927
  H         1.6849039708        2.3713570232       22.8991497907
  O         8.5917870845        0.1880787601       24.9879702383
  H         8.9945368855        0.3231607861       24.1108015949
  H         8.8442296798       -0.8061493298       25.1720995737
  O        -0.4412397926       -7.3693993380       12.1076453948
  H         0.3392138581       -7.0601947186       12.6222436980
  H        -1.0412702559       -7.7469183416       12.8673765812
  O        -2.0664272311        1.8650813676       19.1779383310
  H        -2.8484880092        2.2338957961       18.6238939434
  H        -2.0576058752        0.9965679004       18.7399170574
  O         8.0098615045       -4.3680438827        8.4242881115
  H         8.9146747149       -4.7470258575        8.2489744624
  H         8.0479270039       -3.4721355585        8.0179817935
  O         5.5213945632      -12.1353815821       24.5565318529
  H         4.9098122448      -12.5025309731       25.2673589910
  H         6.4903687056      -12.2057947904       24.8284181092
  O         4.0812339311       -3.0969406235       16.1074925574
  H         3.6727461548       -2.2375597370       16.2122779688
  H         5.0735308793       -2.9686238985       16.1140084900
  O        -2.1434875365       -7.0373240827       17.5193443837
  H        -1.6729718050       -6.6882853950       18.2600086807
  H        -2.0064220313       -6.4359267265       16.7408060098
  O        -1.6622843126      -10.2426231996       23.6026475313
  H        -1.9366391116       -9.7771496132       24.4147879745
  H        -0.8646274503       -9.7213249310       23.2222188205
  O        -3.2830282766       -1.6611142912       19.1256170491
  H        -4.1486803793       -1.2719738443       19.3711398796
  H        -2.6022886827       -1.3441700644       19.7474432995
  O        -3.6881104899       -2.7270083492       25.5487567451
  H        -4.3637063502       -3.1441248329       24.9129201633
  H        -2.8209595315       -3.1690927892       25.3831903004
  O         4.8636895956       -9.2651686462       13.4430717660
  H         5.6843533287       -8.7648285307       13.5270841291
  H         5.0970176746      -10.1832017018       13.2073691733
  O        -2.2231270411       -0.1687273902       15.3053125885
  H        -2.9355803588        0.4973522536       15.1049173418
  H        -1.4368047231        0.3466271107       15.6561350889
  O        10.1499406335       -5.4730948407       15.1901766237
  H         9.1999122383       -5.8096812054       15.1568247489
  H         9.9223467112       -4.5436504454       15.4311160772
  O        10.0149874914        3.6533784853       13.4831289158
  H         9.0830757167        3.9144031576       13.4108996388
  H        10.1230540821        3.3346020922       14.3766245943
  O         5.2150162193       -6.9598947813       19.7045027858
  H         4.9291105361       -6.5059784616       20.5048827510
  H         4.8787464907       -6.3834746240       19.0261134242
  O         6.7898049893       -2.5615489512       16.4050846689
  H         7.3683537545       -2.8240093041       15.6294240702
  H         6.9455509197       -3.4633605819       16.9429550217
  O         2.0260371826       -3.1405649408       24.0682429593
  H         2.2054795872       -2.4513838462       23.4095931839
  H         2.8388645272       -3.5420424064       24.3789754975
  O         8.4295069837       -9.2686319146       17.5969045190
  H         8.9043570709       -8.4933075716       17.4434544499
  H         8.2017461530       -9.6806629254       16.8165606234
  O        -5.6657380862       -0.4656235187        8.4355901162
  H        -5.9853373052       -1.1255456916        9.0968344959
  H        -4.9590269446        0.1779926540        8.7650054139
  O         5.7455064615        6.4416157856       25.2939987880
  H         6.2010107256        7.1775724482       24.8769741847
  H         4.9174801398        6.8350073036       25.7944439586
  O         4.0137665435       -0.3677527109       26.7671607163
  H         3.3682287552       -1.1222902708       26.7854551417
  H         4.6654370328       -0.2852673373       27.5163904533
  O         1.9495537864        3.8586875509       15.1095204144
  H         2.7078116241        4.3131984278       15.5305863264
  H         1.2198882577        3.8608512690       15.6948556129
  O         7.9333644542        1.7211288964       15.1980690674
  H         7.2019236900        1.1191111727       15.4969818321
  H         7.6649433765        2.2008053444       14.3885517781
  O        14.3729940406        1.6883439004       13.7983077047
  H        14.4878882391        2.4210190841       14.4593739844
  H        14.9488714915        0.9568973551       14.0167846340
  O         5.9684598575       -0.0842433974       16.2078815994
  H         6.4577724333       -0.9430669200       16.3174151239
  H         5.9364262512        0.2491212498       17.1378418682
  O         8.9683213982        1.1574715185       21.5901147319
  H         9.5780047570        1.5504747973       22.2682593073
  H         9.3991733584        1.5264573520       20.7659722696
  O        -0.0834544668        3.4743151558       16.9590465500
  H         0.4598711963        3.5744536442       17.8153838989
  H        -0.9616703123        3.8179545737       17.1166370893
  O        -7.4557388180        0.4564640064       18.7761254356
  H        -6.9204569029        0.1481011960       19.4936919107
  H        -7.7932035869        1.3123515924       19.1489691578
  O        10.9430535214       -4.4639585210       12.7287957745
  H        10.6559598826       -5.1212432182       13.4560303244
  H        11.5226996990       -3.9048929798       13.3198098072
  O         1.2816124664       -2.5569023037       18.8582349786
  H         1.8502508502       -1.9532578913       18.3149050763
  H         1.2191888962       -3.3283673836       18.2701547483
  O        -2.7058294686       -2.7824378299       16.2489847682
  H        -2.5725615178       -1.9500951268       15.7199557464
  H        -2.6656276995       -2.4023372213       17.1495298377
  O         2.6718715347        4.0391203675       24.3580350080
  H         3.4759302366        4.1318551239       24.9555680113
  H         2.2046648483        3.3781319560       24.8627161678
  O         3.3147861639        5.4205405974       17.2129200622
  H         3.0326007377        6.4072044105       17.3039971875
  H         2.5741535216        5.0281087828       17.7707696550
  O         0.1698894495       -4.8940966457       22.5186839705
  H         1.0134566259       -4.5077650368       23.0056135004
  H        -0.4194093028       -5.0399974286       23.2617606559
  O        -0.8405839279       -0.9867579124       20.5545191273
  H        -0.2171675473       -1.6506700030       20.2088274568
  H        -0.8073581516       -0.9423212675       21.5324710256
  O        -5.0449732095       -7.4496087857       21.2842215851
  H        -4.8924289619       -6.4768285923       21.5839226014
  H        -5.5868803000       -7.3755790584       20.4384375122
  O         3.9735604795        2.8418511436       19.7271385968
  H         3.8181946228        2.8021789315       20.6939962660
  H         4.5918916959        3.5880560653       19.6650957003
  O         3.3755512292       -2.6860211357       20.4061108228
  H         2.4972031860       -2.9157139535       20.0458782443
  H         3.4409982544       -3.2113768721       21.2273375037
  O        10.1920746829       -8.2058447924        8.5812343147
  H         9.2420946762       -8.3488830872        8.3992946244
  H        10.1159752274       -7.7880717965        9.4953485878
  O        -1.8721994741       -5.5655949183        7.9480501832
  H        -1.4580412095       -5.3012694228        8.8333623430
  H        -1.9820006561       -6.5700688049        7.9695074672
  O         1.5060513532       -5.8073286875       14.4575098202
  H         1.5865491253       -6.8325546160       14.5768119364
  H         0.9896529680       -5.4615284244       15.2294952775
  N         7.3047847780       -4.7670303056       17.7568999748
  H         6.5917643966       -5.0182946961       18.4142986591
  H         7.4398386651       -5.5174472585       17.1019571735
  H         8.1907589864       -4.7416031017       18.3351773330
