     193
 CELL 12.4294 12.4294 12.4294 90.0 90.0 90.0 i =    82520, time =    41260.000, E =     -1096.5445191036
  O         6.2596844642       -1.0428730912       40.4479859100
  H         5.3456099716       -0.9724241446       40.1364865761
  H         6.3319686485       -0.8396051685       41.4078058440
  O         6.6682868529       -7.8010879681       38.2657231586
  H         7.2614038580       -8.4101583722       38.7308290562
  H         7.1409160677       -6.9328357657       38.2538627240
  O        10.8369812106       -3.5492662446       40.0700315640
  H        11.4826069474       -3.9161602040       39.4656829332
  H        10.2613069473       -4.2460163873       40.4618369062
  O         9.0640033258       -0.1113777110       39.6393819358
  H         8.1214634668       -0.4674477059       39.6380643846
  H         8.8057096354        0.8369495984       39.4658039381
  O        -2.9799552618       -6.0351836077       35.5915660006
  H        -2.9149288269       -5.1479308353       35.9741451214
  H        -2.6249101529       -5.9056606303       34.6728248203
  O        15.6349910246       -3.4420530924       47.5168251597
  H        15.2209210057       -3.8129866245       46.7180727620
  H        16.4286887792       -3.9351670213       47.5599968169
  O         6.5077019178        0.1035725876       31.0376417266
  H         5.5266840657        0.1501788940       31.1171697225
  H         6.7867707078       -0.1916909739       31.9452155157
  O        14.1310783902        3.9764394140       41.4437259765
  H        13.7049753690        4.7808998825       41.8309704590
  H        14.2892364807        4.1418920308       40.4537190008
  O         4.3607379755       -6.7403563992       32.0601602006
  H         4.7911644427       -6.2709248906       31.3283500959
  H         4.0960578465       -7.5896587196       31.6068977168
  O         9.9949292573       -2.6735369468       31.1296132130
  H        10.3217689417       -2.0449795788       30.4630137950
  H         9.3541133696       -3.3135304020       30.7437876002
  O        10.3368897139       -5.1635901300       33.2218584347
  H        11.1232537016       -5.5371677161       32.7951712507
  H         9.5162246258       -5.4438092397       32.7578898120
  O         1.3058666468        6.1789120381       35.1169601771
  H         2.2231420363        6.4456889470       35.1537991387
  H         1.0256588314        6.0810471492       34.1976141374
  O        -1.0323168235        0.5821819663       44.3831498748
  H        -0.7672276740        0.5685278465       43.4768584420
  H        -0.6973175178       -0.2762906153       44.7207619842
  O         7.2178779221       -2.9629835648       35.0095251290
  H         7.6737346467       -2.3842522285       34.2801255320
  H         6.5480151504       -2.3792218874       35.4735033464
  O         6.9436599400        1.4273857535       36.7660006187
  H         6.5081867252        2.2266307072       36.4073425493
  H         7.7909416925        1.5949418441       36.2306695768
  O        16.7165639239       -0.8458341580       38.4077096319
  H        16.3060824731        0.0376006230       38.6589794125
  H        15.8978999809       -1.3459054387       38.0460514678
  O        14.9053860758       -4.6472124506       32.3929097723
  H        14.2150691486       -4.4360596783       31.7726026700
  H        15.2387476777       -5.5031213614       32.0595024021
  O         9.1544263733        3.1980392978       41.6009185134
  H         8.6056301320        3.1087253486       40.8616430815
  H         8.8613218421        2.5188909352       42.2479726777
  O         5.7150070725       -1.0023043310       36.0552097245
  H         6.3276442413       -0.1847569851       36.1397750029
  H         5.2951080345       -0.8532694804       36.9221762262
  O         9.5972710142       -6.6412422610       40.8710838910
  H         9.3683424129       -5.8092959964       41.4596377296
  H         9.3909708875       -7.3975653771       41.4929613862
  O        14.7188275947        4.2333743426       26.4477445281
  H        14.7713207136        3.4183050241       25.9323198989
  H        13.9421421796        4.7324548684       25.9667726151
  O         4.5711520233        4.6785705612       40.1045979747
  H         5.3241221080        4.8614518813       39.4217618134
  H         3.7411580757        4.6740344772       39.6298774610
  O        13.3374089517        0.3670108187       40.4482043689
  H        12.5925368199        0.8994872035       40.8123953831
  H        13.5343770249       -0.3150581440       41.1200182862
  O         5.0803498388      -10.2012419356       28.7189420463
  H         5.0458590118       -9.2231725929       28.5508450257
  H         5.4695048890      -10.3121503688       29.6299822590
  O         2.7760973728        2.1973739744       36.6473407766
  H         3.5988638451        2.7560248431       36.4279457119
  H         2.9480624950        1.7033301164       37.4971787647
  O        13.2123369249       -4.4134385829       26.1634776326
  H        13.6995493528       -4.6169110781       27.0289800261
  H        13.6546143671       -3.6495690293       25.7349057475
  O        11.5311046282       -8.8116748340       44.5123978703
  H        11.9064001982       -9.7173201980       44.6516329887
  H        10.5912608852       -9.0235118328       44.7094213711
  O        12.5764094912       -3.1577979298       31.6979353135
  H        11.6458467991       -3.2268471103       31.5222099509
  H        12.6913804670       -2.5946939578       32.4951662097
  O         6.4822213358       -5.5007304792       34.9926134060
  H         7.3661627308       -5.9119790051       35.1370221537
  H         6.6800006394       -4.5243049836       34.8137208521
  O         3.1720563217      -11.0868225457       39.4042310524
  H         2.2870748545      -11.2461396689       39.8766977080
  H         3.8615651867      -10.8255095554       40.0530382773
  O         1.9057376119       -2.0918877355       37.5048273133
  H         1.2824301814       -1.3341459347       37.5041688041
  H         2.0687126926       -2.3076424141       36.5898176044
  O         1.7334958653       -1.6212676000       42.2376821835
  H         2.4440401988       -1.3274740321       42.8767620102
  H         1.0780722703       -2.0277458898       42.8543236908
  O        12.7298667275       -6.4827339593       32.6666594371
  H        12.8586924037       -6.4062741916       31.6869137529
  H        12.2779870629       -7.3514444496       32.6601570956
  O         3.4907654885        0.1380104622       31.2170934801
  H         3.3403227699       -0.2634406645       32.1571398470
  H         3.4325788092        1.1140129332       31.2550710248
  O        17.0385121807       -0.7102569974       33.6540110051
  H        16.9855136336       -1.4201171707       32.9808558775
  H        17.2660271121       -1.1341280817       34.5194175676
  O        15.6444110226        3.1458206762       31.0025840465
  H        15.1175251303        3.2679744865       30.2247057678
  H        14.8611120903        3.0126299315       31.6715653754
  O        10.2403186557       -8.3746989179       37.0022579675
  H        11.0687190162       -7.9545570983       37.4141395191
  H         9.9538081647       -7.6043391515       36.4728056037
  O        12.5431030380       -1.1380787064       34.0375250823
  H        13.3206081946       -0.5884109815       34.2940943196
  H        12.4731993390       -1.9573387937       34.6402216275
  O        12.5937523087       -6.2937518202       42.2711369609
  H        13.0847874080       -5.5184115771       41.8474118309
  H        11.8047874701       -6.5008503496       41.7767137741
  O        16.4957154424       -6.5426960147       34.7814199115
  H        17.3932876507       -6.0515062124       34.6845540837
  H        16.4123734355       -6.9148454864       33.8695224486
  O        -2.3487208908       -1.0574332807       24.8543383137
  H        -2.7221067080       -0.6859131541       25.7403442249
  H        -1.3745968439       -0.8197867135       24.9664506003
  O        11.7988929021        2.0453968441       41.7370752022
  H        12.5506088431        2.6526744025       41.9275823536
  H        10.9595156655        2.5101325137       41.5626151535
  O        10.2428903584       -0.0999467764       47.1185471617
  H        11.2256260242       -0.2916389112       46.9202132840
  H        10.1136138614       -0.6125971621       47.9793034138
  O         8.2413864672        3.6600236288       33.0730735623
  H         8.4266730140        2.9253875504       32.3977902282
  H         8.4964236393        3.3036238945       33.9368078609
  O        14.0420052764        2.4304973502       32.9212372818
  H        14.4497481480        1.6958196615       33.4278085239
  H        13.9420675730        3.1006800582       33.6307811027
  O        20.7144302981       -0.9722066255       33.0861928235
  H        21.4316701864       -0.5289472424       33.6281202502
  H        21.2623061200       -1.4623411327       32.4519884685
  O        12.6702461942        2.1160425227       36.1288416705
  H        11.9282361052        2.7434250996       36.1114387446
  H        13.4448050450        2.7451448968       36.2429606102
  O        14.4347759946       -4.2375747917       41.2406325274
  H        15.3491569993       -4.4724798774       41.2553411792
  H        14.3433983228       -3.2460068871       41.2581111516
  O         5.0039641844        3.6551191744       36.0964508625
  H         5.5056973558        4.0518511742       36.8373816494
  H         4.6199364391        4.4101506082       35.6081129153
  O         0.3760225180       -0.0937035012       37.8812310268
  H         0.1837135773        0.7334738193       37.3352222730
  H         0.5830008454        0.0690094882       38.8266051273
  O        16.8467818296       -2.8469762642       31.6280075114
  H        15.9885867534       -3.3380607328       31.6586254777
  H        17.3902021738       -3.3898550743       31.0744004559
  O         9.2280700645       -3.5871741066       37.0974723112
  H         8.6870918801       -3.2237829876       36.3271915821
  H         9.5986245090       -2.8028781224       37.5352983133
  O         2.3658172556        0.4618393850       34.5784353201
  H         2.5461226890        1.1160337381       35.3024416020
  H         3.2427921837        0.2087717164       34.1465893723
  O         8.9685029241        1.5716542495       43.7635115870
  H         9.6275279879        0.9897867014       44.1939412088
  H         8.1251541902        1.0281617565       43.6558836864
  O         8.9904922677        2.2132720869       35.3516891030
  H         9.3915845461        1.3772570748       35.0426220399
  H         9.5440254994        2.6998698888       36.0690319006
  O         8.5165498293       -4.6620022297       42.5114313626
  H         7.6659540313       -4.3290023336       42.1431532331
  H         8.2066884117       -5.3959888134       43.2153578718
  O         4.5864540820       -5.3672385446       41.8522616101
  H         5.1751437920       -4.7344726043       41.3015197567
  H         4.6842905195       -6.1606526921       41.2531301722
  O         0.3075647895       -6.9626613953       37.4328556179
  H         0.3141529548       -6.0673535779       37.7784996162
  H         0.6624922231       -6.7948785353       36.5233087702
  O         8.4345177694        2.4049498883       39.0964010361
  H         7.9367197848        2.0605007109       38.3111893651
  H         9.1211199720        3.0387586016       38.7226575651
  O        10.9914321082       -1.0381819236       41.5783994201
  H        11.0906097936       -1.9464780382       41.0955975198
  H        10.4408303933       -0.5470895235       40.8373189022
  O        20.4398205937       -5.4590992105       26.5675161830
  H        20.9159149894       -4.8561832867       25.9379760529
  H        21.1258223176       -5.9438745495       27.0153487963
  O         6.3471987480       -3.9447859915       28.1249367805
  H         6.9471126948       -4.4085216939       27.4717432231
  H         6.2356622292       -2.9958814592       27.8337442096
  O         7.9716353523       -6.1726496409       32.3644375339
  H         8.1009592294       -7.1337303382       32.6423106623
  H         7.3499045146       -5.8666037611       33.0436421368
  N        11.9118782182       -3.4059578970       35.0596510111
  H        12.6214771232       -4.1970099894       34.9153557463
  H        11.5560326615       -3.6312173814       35.9273117656
  H        11.1812107318       -3.5713337276       34.3423046484
