     193
 CELL 12.4294 12.4294 12.4294 90.0 90.0 90.0 i =    94120, time =    47060.000, E =     -1096.5683313585
  O         7.2644242425       -0.6777459489       46.8675939533
  H         6.6844554969       -0.5409768771       46.0246720477
  H         6.7865378126       -0.0824362826       47.5275184017
  O         9.2210450816       -8.3658373221       44.5420419254
  H        10.0846887725       -8.6738186590       44.9448819120
  H         9.4834033922       -7.4918641312       44.1027875597
  O        10.4592383440       -2.0022701524       48.0803656094
  H        10.8691784380       -2.2781780694       47.2742573313
  H        11.1023370886       -1.8826930012       48.8226689208
  O         8.8545335392        1.4537988051       45.9919803370
  H         8.1772857361        0.7838911699       46.3333640455
  H         8.4365667538        2.3683476220       45.9946990069
  O        -2.4462280446       -5.7610508257       43.4499899141
  H        -1.6000494519       -6.0708433539       43.0682746429
  H        -2.3052707394       -5.3450236369       44.3712533377
  O        16.2832745647       -2.1639619590       53.8981867956
  H        16.5671078639       -1.3556806902       53.4254393976
  H        16.6940771597       -2.8886038853       53.3607196518
  O         7.0902938691       -0.3464782383       38.7641645617
  H         8.0139097667       -0.2066810481       39.1276547531
  H         7.0355412073       -1.2610152425       38.4363729930
  O        14.3150897295        4.2475855947       47.6800673498
  H        13.6062725731        4.9380555910       47.9434662942
  H        14.4020650691        4.6410018103       46.8097590823
  O         6.1646887635       -7.5716132480       36.0369164827
  H         5.9163483353       -6.6970534341       35.6015294200
  H         5.3736805150       -8.1148784055       36.4529344724
  O        11.6275058961       -1.9455489187       38.0950822601
  H        12.1694467437       -1.1525665439       38.3525273362
  H        11.8781971238       -2.7910165454       38.4905438986
  O        11.6792223691       -4.9953481646       39.5806785335
  H        10.9097372209       -5.2984405570       39.0634794179
  H        12.4642934562       -5.5703747985       39.2721333671
  O         4.1779635554        5.6285266565       41.7747498160
  H         5.0128382648        6.0237172230       41.3231763120
  H         3.8597056647        5.0237733324       41.0962751422
  O         0.1253608779        0.3140286207       51.6037258446
  H         0.9573288859        0.8877821719       51.4314612598
  H         0.4581622378       -0.2202686942       52.4548010035
  O         7.8972817468       -1.6659749332       41.8339253725
  H         8.4572363293       -1.6919202020       41.0260719445
  H         7.4553207433       -0.7821613987       41.9186904287
  O         8.0912363871        3.1412525046       42.1641907403
  H         8.5087032701        3.3809514169       42.9984821016
  H         8.5585549056        3.5870520843       41.3310911341
  O        17.7259077513       -0.4111354174       44.7601658519
  H        17.1847492301        0.3193963143       45.2143184208
  H        17.0737529201       -1.1285195893       44.6045799343
  O        17.3503103265       -3.5895476582       39.4440537508
  H        16.4486626435       -3.6374804278       38.9741669597
  H        17.7110846483       -4.5099045431       39.5192061363
  O         9.6003683872        4.2207413680       48.2413751581
  H         9.9568050668        3.6780513928       47.5229242468
  H         9.0536630983        3.6877313959       48.8599404573
  O         6.4749200698        0.8903238201       42.3050027370
  H         7.0805995837        1.6416133713       42.3586803294
  H         6.3118378562        0.5498616024       43.2133321080
  O        12.2634607025       -6.8267066430       48.7407606990
  H        11.9452913567       -5.9214806714       48.8770241405
  H        11.4936416024       -7.3560113070       48.4768540993
  O        13.9633652914        4.6703115750       32.5661528183
  H        14.6479919593        4.0446477768       32.2312941778
  H        14.0574315706        5.4122558442       31.8891368220
  O         6.5842983669        6.5212386883       44.7049877178
  H         6.9892728238        7.1700563735       44.0818143740
  H         6.2226914225        5.7706281671       44.1821595425
  O        14.8906529328        0.6945025754       48.2470060094
  H        14.1966024868        1.2945813658       48.6124548724
  H        15.1454941791        0.0006579560       48.9111343485
  O         6.7299348117       -9.2457298156       33.9001194624
  H         6.5050948998       -8.7604531288       33.0788849547
  H         6.5534158418       -8.6123176848       34.6406434409
  O         3.7277873785        2.8298496681       44.2642618549
  H         4.5671982863        3.1285288096       43.8280572110
  H         3.9289647235        2.3583770144       45.1149352254
  O        13.9953711060       -3.5186215943       32.2430027398
  H        14.7887251606       -3.6224627625       32.8377098872
  H        14.1658477028       -2.7332571207       31.6767826584
  O        12.3387568590       -8.7266197926       51.6048213597
  H        12.2789029654       -9.4796198750       50.9586955563
  H        12.3491980770       -9.0883297534       52.5209475870
  O        14.9576037740       -3.1133273536       38.3918489020
  H        14.2609335824       -3.4747243668       37.6970626344
  H        14.3482878451       -2.6400585194       39.0374991488
  O         7.7952901280       -4.6115336732       42.2949171121
  H         8.7271145080       -4.8794440977       42.6007973238
  H         7.7774840363       -3.5773665100       42.1795519165
  O         4.3474074603      -10.9971687883       46.5457183664
  H         3.7182986426      -11.3984041334       47.2617461989
  H         5.1200521559      -10.5717010415       46.9922513528
  O         2.3680642946       -1.0106885799       43.6098723716
  H         2.1268521373       -0.1061758241       43.2026955354
  H         2.9895168357       -1.4413016548       42.9891429061
  O         4.0126288669       -1.7036068386       48.8313221266
  H         4.9332042551       -2.0223904744       48.9616415270
  H         3.5083522024       -2.0457904150       49.6060104495
  O        13.7683762276       -6.5100285920       38.6145781893
  H        13.8370718708       -6.1691357789       37.7299874126
  H        13.1134669960       -7.2614014194       38.5838919095
  O         6.2591270100        1.0958709631       36.6786499113
  H         6.4588373966        0.4919199632       37.4713114513
  H         5.5207028132        1.6813741749       37.0447297466
  O        17.2516516038        0.1614892459       40.2556756158
  H        18.0471170350       -0.1900851820       39.7727338689
  H        17.7523180519        0.6119395600       40.9892756413
  O        16.7014693818        3.1729148584       37.1408521563
  H        15.9448744242        3.0631584591       36.5381006008
  H        16.3621776032        3.6131302777       37.9885535832
  O        12.0672268651       -6.3282727501       42.0989697671
  H        12.9863944558       -6.0600644494       42.3428598957
  H        11.9648838368       -6.0366596557       41.1367458876
  O        13.7362149697       -1.8967903812       40.6080609440
  H        14.5400942114       -1.9341349855       41.2004995958
  H        12.9755312963       -2.3084404294       41.0249072099
  O        13.3298157755       -4.1911775089       48.7156595853
  H        14.1331248086       -4.1192769681       48.1755991967
  H        12.7027909730       -3.6170051341       48.2943864232
  O        18.7313932953       -5.8725690263       40.5767318152
  H        19.3743334159       -5.4584470259       41.2289377157
  H        19.1205680726       -6.3705408987       39.8584164625
  O        -1.7775528232       -0.1692218548       31.9697715158
  H        -2.3909447868        0.2704246698       32.6477794966
  H        -0.8964061556        0.1508062281       32.1002688882
  O        12.6745040330        2.5496277378       49.1074866619
  H        13.2242337683        3.1597025774       48.5908438475
  H        12.0287364569        2.1949876200       48.4906965158
  O        10.3486948492        1.2920956627       54.3885887086
  H        10.2822272064        0.7804852697       55.2760150530
  H         9.4467107956        1.7427746082       54.3648023536
  O         9.2186260437        3.8963103130       39.8968356412
  H         8.9964996225        3.1918771961       39.1927266031
  H        10.2139485274        3.9445528766       39.7872207454
  O        15.9423204461        4.2574372542       39.4728616422
  H        15.4452797655        3.3957803356       39.6242143508
  H        15.2205807270        4.9058328041       39.1789698424
  O        22.0466117777       -0.6986893508       40.0501444891
  H        22.4221407375       -0.0632310414       40.6964876611
  H        22.8356015059       -0.9210795081       39.5275043728
  O        14.3991460014        1.5505969258       42.6655222636
  H        13.5838681738        2.1354152150       42.6013357900
  H        15.0765695154        1.9884553720       43.2382634762
  O        15.5479233955       -3.5496207154       47.0587325382
  H        16.2750308609       -4.1908133205       47.1890583281
  H        15.7768237592       -2.6766981974       47.5026743486
  O         5.6237818755        4.1108391203       43.2509259297
  H         6.1951524883        3.7716549429       42.5155164898
  H         4.9340937174        4.7497868036       42.7667165444
  O         0.5926407802        0.9764035210       45.9183293371
  H         1.2512400104        0.9654021766       45.1919807696
  H         1.0335806965        0.7168983789       46.7687621449
  O        18.9331704739       -2.7009875822       37.1961667051
  H        18.4231396880       -3.2227525274       37.8300171532
  H        19.5184314266       -3.1796638572       36.5758839534
  O        11.0143445453       -2.9232664509       45.4538488811
  H        11.0900677966       -1.9783327741       45.0745816634
  H        11.9456611754       -3.2787285835       45.4354572519
  O         2.4356716570        1.5661030976       39.8098483521
  H         2.2534714996        1.3515544243       40.7873746818
  H         3.2397286211        1.0334928220       39.6649756876
  O         8.6131190498        2.3577024397       50.1551012929
  H         9.2623053125        1.6881491987       49.7111272192
  H         7.7232222045        1.8750990739       50.0466967704
  O        12.2955518461        3.1242505666       41.9074625324
  H        11.4760167448        2.5015714074       41.9402136476
  H        12.0808737739        3.9976481837       42.3467700099
  O        10.0432832169       -5.0057673114       49.7162231034
  H         9.7915812350       -4.1909690626       49.1500232224
  H         9.1499734336       -5.3492623988       49.9460181121
  O         5.5331978140       -5.1893632131       47.3007614058
  H         6.1599693044       -4.5853015128       47.6300076264
  H         5.7108879440       -5.2133404496       46.3142253447
  O         2.0325353834       -5.6847665209       42.9055937406
  H         2.0766636394       -4.8355243969       43.4488611613
  H         2.8580206249       -6.0228042320       42.5682990334
  O        11.5065941867        3.3245240634       45.8691440862
  H        11.9548883505        2.4685317993       45.8854629946
  H        12.2293045014        3.9409190796       45.5943718314
  O        10.3622520965        0.8108790798       48.2513186123
  H        10.1852490704       -0.1993411032       48.1655735966
  H        10.0739687176        1.2228017842       47.3896030197
  O        21.5017576612       -5.9015183843       34.0231114092
  H        20.6410250479       -6.2251383932       33.6174411509
  H        21.8274652281       -6.5643528911       34.6928075531
  O         7.8640543759       -3.5963141139       35.1202294213
  H         8.4841002752       -4.3227710535       34.8400776130
  H         8.0959693843       -2.8159532199       34.5654492815
  O         7.8103288751       -6.6582115601       38.2870886128
  H         8.3755803453       -7.3586652084       38.7037326994
  H         7.3422027252       -7.0765671434       37.4981596861
  N        11.2794969287       -2.9164201609       41.5604302837
  H        10.5066949917       -2.8510131535       40.9308237561
  H        11.3594297234       -3.9113663769       41.6713192823
  H        10.9205977849       -2.4774766584       42.4477708345
