     193
 CELL 12.4294 12.4294 12.4294 90.0 90.0 90.0 i =    44120, time =    22060.000, E =     -1096.5407400693
  O        -1.1553311956        0.8818785590       20.9737697436
  H        -1.1230935791        0.5263191778       20.0812001385
  H        -1.9959587139        1.3211133595       21.0800336868
  O         2.4376742920       -8.1788325879       15.9353873703
  H         2.8454612487       -9.0154681010       16.1726271411
  H         2.3644754934       -7.6833637579       16.7716908475
  O         1.9344700213       -6.2997229547       18.0097169184
  H         2.4065857310       -6.0854252836       18.8965665899
  H         0.9802602484       -6.1914826442       18.1911422161
  O        -0.3313197472       -0.3374085162       18.4932441403
  H         0.6049791927       -0.0102156669       18.4899779019
  H        -0.4070608270       -1.2805009101       18.3759437169
  O        -9.4258953878       -3.5249757693       15.2177646803
  H       -10.4163756971       -3.4549239968       15.3443023157
  H        -9.2060635217       -3.1177531673       14.3588596752
  O         6.1262490973       -5.1645623536       22.8622755491
  H         5.9412659483       -5.0439711316       21.9400970014
  H         5.4382597597       -5.7505007288       23.3449894570
  O        -1.3922623340       -0.9054997791       10.5969377793
  H        -1.9061039297       -0.4270176690       11.2845387637
  H        -1.4935891592       -0.3493357965        9.7978296866
  O         5.6166905965        4.3234033162       20.5495189408
  H         4.6204168616        4.4808754776       20.5337020563
  H         5.7262920085        3.5793803013       19.8887789464
  O        -3.1036405771       -8.1377204390        7.1458173685
  H        -2.5204420771       -7.7513455653        7.8287045624
  H        -3.8183087828       -7.4439166871        6.8387954436
  O         1.4304595936       -1.0466388770       10.6145509519
  H         0.4791264649       -0.7621243538       10.5543671913
  H         1.4488209954       -1.4040728195        9.6715338422
  O         2.1136020050       -4.5730539652       10.0671630769
  H         2.4927147720       -4.1060299752       10.8625661058
  H         1.2661676603       -4.9150849922       10.4052317037
  O        -7.6904470227        5.3384717496       11.7543988942
  H        -6.9192381433        4.9062454806       12.3396585944
  H        -8.3239423560        5.5640547397       12.4680670682
  O        -8.0637937311       -2.4686352563       18.9783715833
  H        -8.3594258071       -1.7094154959       19.5657978213
  H        -8.8711288279       -2.8533948828       18.5643192161
  O        -0.6563504924       -3.0616352793       12.9951773401
  H        -0.0985309030       -2.5183488715       12.3489649133
  H        -1.5125749206       -2.6301324801       13.1513160490
  O         0.1459031338        1.4707733794       12.9937379544
  H        -0.0917248012        2.2597033845       13.5632866046
  H         0.0215526106        1.7824029141       12.0946122074
  O        10.3252934030        0.7055821228       16.7772441719
  H        10.5472820528        0.9614300240       15.8709329462
  H        11.1408048485        0.2453994988       17.1073373966
  O         5.7628364575       -4.3793885774        7.6678897093
  H         6.4364526206       -4.9977561409        7.2293346810
  H         5.3968746880       -3.7279531561        7.0456770647
  O         2.1327442694        0.8081523625       18.7846741499
  H         2.8292020539        0.5968665921       19.4322545779
  H         1.8546740374        1.6806425915       19.1582905510
  O         0.9431111142       -0.5729921302       14.9664703293
  H         0.7540439490       -0.0223020830       14.1384070347
  H         1.9311556410       -0.6911445117       15.0111009436
  O        -1.0765797855       -5.9878612613       18.3462991388
  H        -1.1994438509       -5.4317936888       19.1746483092
  H        -1.4890828647       -6.8240485036       18.5762966169
  O         6.0767936213        2.9060397629        5.5553928395
  H         6.4318370661        2.0975415509        5.1393639590
  H         6.0774729655        3.6845671120        4.9031483730
  O        -0.7248276818        3.2173324039       17.5892407347
  H        -1.3574451872        2.4411760917       17.5789255562
  H        -0.3300228153        3.2381252025       18.4867471446
  O         7.2033843223       -0.2545225522       19.9948662437
  H         7.7355697523        0.4995478196       20.2545515733
  H         7.2094784451       -0.9118222653       20.7141712535
  O        -2.4520878971       -7.4258607720        9.9613915914
  H        -2.2394603021       -6.4904100636       10.1129747792
  H        -1.5895128488       -7.7982249554       10.3691629178
  O        -3.2597960247        2.5248624105       14.9417142497
  H        -3.6093808613        2.9526416256       15.7794474068
  H        -4.0505343119        2.6566816122       14.2959132777
  O         7.3371752076       -6.4914434782        6.4284002599
  H         6.6589688087       -7.1305021558        6.8250324324
  H         7.3760235018       -6.8847318302        5.5648682693
  O         4.4958345152      -12.4806215110       20.0869434725
  H         4.4302472734      -12.2173750374       21.0792811773
  H         5.5164136495      -12.5048091376       20.0773864637
  O         3.1063107685       -2.8721403984       11.8859132534
  H         2.6253745882       -2.1002170614       11.5192094542
  H         4.0774777360       -2.5811629443       11.6937026369
  O        -3.5762845071       -6.3703561001       13.8024707583
  H        -2.9209253372       -6.3594280554       14.5389913462
  H        -3.4331026719       -5.6571036035       13.1099902159
  O        -3.8512618773      -10.4560446265       20.6899156630
  H        -4.2919282026      -10.1467238945       21.4744350756
  H        -3.6770950611       -9.6427341873       20.1734130790
  O        -3.8043178832       -2.8152357666       16.0503047137
  H        -4.6316717475       -2.2315104332       16.2776840874
  H        -3.1044338946       -2.5358901035       16.6319708656
  O        -5.4200606724       -2.1736036045       21.7497341197
  H        -5.7085804232       -2.9342180291       21.1700240158
  H        -4.4640299344       -2.4053314906       21.9196742913
  O         2.9830711582       -8.5808137294        9.7128309833
  H         3.4891560752       -8.0255552007       10.2902097677
  H         3.2001006646       -9.5324103440       10.0688015365
  O        -2.5745733871        0.5634466811       12.3978624199
  H        -3.2971229850        1.2007151631       12.2498226841
  H        -1.8920854695        0.9409636541       12.9548714192
  O         8.6172490270       -4.4004029481       11.7544798083
  H         7.8516385767       -4.8067141304       11.3488398743
  H         8.2779760200       -3.7268568004       12.4083654845
  O         7.4585160185        3.7791177888       10.3078559115
  H         6.7082240664        4.0493363553        9.7004776390
  H         8.2104053859        4.3616917221       10.2097536860
  O         4.2149682476       -5.1485883514       17.1914202221
  H         3.3303143388       -5.5448604667       17.3313092808
  H         4.0027370282       -4.4806855281       16.4863586545
  O         5.7164335685       -1.9802557728       11.9095105619
  H         6.1404862174       -2.0952494416       10.9554547241
  H         6.0376372283       -2.6952063617       12.5533814948
  O         1.0239809068       -2.8220560306       20.8000038165
  H         1.1727097837       -2.9318112915       19.8045910370
  H         1.4912629783       -3.5212691543       21.3581903559
  O         6.6013499669       -7.6951680128       13.6239499120
  H         7.3955857441       -7.1638000353       13.7197392085
  H         7.0240662926       -8.5388732357       13.4153806573
  O        -6.8298353736       -1.6460442396        4.1275476406
  H        -7.2072414237       -1.7382573201        5.0673837075
  H        -6.1870198487       -0.9000049984        4.3132926298
  O         3.4245176280        6.5832928048       20.2478998433
  H         4.2535742823        7.1066953175       20.1305619618
  H         2.9935421841        6.8958815644       21.0434301944
  O         3.5015211422        0.9548157975       22.6902840791
  H         2.6990184679        0.4297683992       22.9578610072
  H         4.0366408548        0.9233883390       23.5206030659
  O         0.1948373523        5.7493360543       13.1356100363
  H         1.1502716679        5.9252542486       13.3941518235
  H        -0.1806305877        5.0748517792       13.7169199822
  O         7.5183390122        2.3316876402       12.5856410921
  H         6.7053323342        1.7300440390       12.3956719377
  H         7.4950199805        2.8913412039       11.7948521965
  O        12.4195710089        3.9368876961       10.7730099468
  H        12.5882821377        4.5577669017       11.5456393319
  H        13.3082861420        3.9344421052       10.3313760832
  O         5.0371425053        0.8112792127       12.5652751121
  H         5.5361797128       -0.0650815733       12.3804388212
  H         4.5701232948        0.6248093690       13.3920530741
  O         7.2899492454        0.6415187774       17.4106623545
  H         7.4752685936        0.4037990606       18.3450924013
  H         8.1382040598        0.5213617244       16.9172312133
  O        -0.5969818997        3.5470691150       14.8674899090
  H        -0.3440933060        3.5461083518       15.8545814011
  H        -1.5886591829        3.4983085511       14.8057969987
  O        -8.6944235069       -0.1474165591       14.9955439399
  H        -7.9431009642       -0.6542753647       15.3815759779
  H        -8.8124693580        0.6817192673       15.4800119819
  O         9.6902170423       -3.0991765417        9.8539612083
  H         9.5620791627       -3.6371085510       10.7721854834
  H        10.2507738297       -2.3001018485       10.1285343395
  O         0.2383435503       -3.0494605427       15.5742813241
  H         0.3816913800       -2.0199699812       15.5738243919
  H         0.0016338646       -3.2492196979       14.6215522533
  O        -3.2926409012       -2.2041771512       13.3845268541
  H        -3.2391457554       -1.2731432362       13.1313404118
  H        -3.4010595561       -2.2267685223       14.3791813570
  O         0.9971337097        3.2610668612       19.9638768102
  H         1.7847180665        3.7166342239       20.4301825042
  H         0.5051450712        2.6923111353       20.5468929986
  O         2.9772746543        6.0368467401       13.8598020766
  H         3.1191963058        6.9860096071       14.2820890682
  H         3.0565783641        5.4785061696       14.6528855242
  O        -1.2808915167       -4.2342745506       20.3404665958
  H        -0.4539670134       -3.8341055186       20.7174233094
  H        -1.9698895536       -3.7865274305       20.9372141370
  O        -1.5341524957       -2.7888327771       17.7076970843
  H        -1.0512906845       -3.2280415678       16.9880331951
  H        -1.5978333496       -3.4262049451       18.5162177567
  O        -6.6012752897       -7.3398292045       16.5005838924
  H        -7.0686221602       -6.5062258220       16.6532248409
  H        -6.5429439344       -7.3791356246       15.5409153575
  O         3.6163450009        1.9618551535       16.7723327019
  H         2.9970310373        1.4608305153       17.4483577822
  H         4.3789113757        2.2644471186       17.3763444534
  O         1.6482894382       -3.4154546304       18.1608427694
  H         0.8928499769       -3.1731700479       17.6488640733
  H         1.9363770087       -4.3555200321       18.0105659421
  O         8.7252604323       -8.0674040199        4.5567645345
  H         9.2603840486       -7.3355185688        4.2435949979
  H         9.0832987150       -8.4274913443        5.3886437460
  O        -2.2080126140       -5.2999041985        3.3660500710
  H        -2.9929998743       -4.7289732867        3.5542138328
  H        -1.7537700602       -5.4494057589        4.2270143032
  O        -0.4536008162       -5.3542752611       10.9090672072
  H        -0.3371263310       -5.5666621800       11.8691578535
  H        -1.1081037420       -4.6384836618       10.8878615384
  N         6.0851908118       -3.9299579109       14.0036752774
  H         5.2533278298       -3.5364581662       14.5290247275
  H         5.9041198632       -4.8524191781       13.7433380877
  H         6.9319480057       -3.8730613749       14.6554636718
