     193
 CELL 12.4294 12.4294 12.4294 90.0 90.0 90.0 i =    63720, time =    31860.000, E =     -1096.4993073158
  O         2.9898721727       -1.3192893770       30.7600524081
  H         3.9687888706       -1.2277276201       30.8025704205
  H         2.5804409029       -0.3827724924       30.6922959302
  O         4.4317908287      -10.3286009769       27.3086042535
  H         5.3835604198      -10.1259743243       27.2009252753
  H         4.1510139184       -9.5502350219       27.8802816443
  O         7.9773100278       -6.7753339878       28.3810083958
  H         8.5563731519       -6.7058079322       29.1699489785
  H         7.1012400837       -7.2047239405       28.5025032553
  O         5.6752789455       -0.9090789307       30.6781021599
  H         5.5009972735       -0.0097365949       31.1382182815
  H         6.2266276513       -1.4004106724       31.3460759663
  O        -6.7229120446       -6.1819371997       25.3473374496
  H        -7.1162125884       -5.5248264500       25.9766652571
  H        -6.4943106112       -5.6538060157       24.5746377518
  O         9.8235463055       -6.5048084978       34.4304751397
  H         9.6638425726       -5.6996541607       33.8977760589
  H        10.1271991198       -6.2147483366       35.3350408732
  O         2.0059816651       -2.4295661629       20.8088255792
  H         1.5776008077       -1.7007611428       21.3329748022
  H         2.3393128289       -2.0453886813       19.9900134178
  O        10.8466247538        2.9649325601       31.9358871461
  H        10.0545161061        3.4779835002       32.0141396790
  H        10.9503335560        2.8719810559       30.9760404046
  O        -0.1862224548       -6.6548864661       19.0307044427
  H         0.0512115549       -5.9680241335       19.6881677272
  H        -0.4813012810       -7.4474320658       19.5078879213
  O         3.9964882854       -4.2011961446       21.9572269393
  H         3.4627142535       -3.6421316438       21.3288336892
  H         3.8857360968       -5.1121908335       21.7400583705
  O         6.8941639898       -6.2896298974       20.3510694249
  H         7.2323772360       -5.6294403727       21.0952556895
  H         6.4480304318       -7.0768883842       20.7676618413
  O        -1.3490980725        5.5318191916       24.5817287171
  H        -0.8726861425        4.7615219018       24.1835055504
  H        -2.1999873356        5.2263946696       24.9012010978
  O        -5.8249528865       -2.9012732573       32.5970133309
  H        -5.5694717109       -2.6172785130       33.4776766066
  H        -6.6389099602       -3.4875792147       32.7238044234
  O         2.0860403509       -4.3078172943       24.1737728726
  H         2.8463626333       -4.2834799735       23.4875337168
  H         2.2541147410       -3.5161330200       24.7839897594
  O         3.1431516602        0.8173202038       24.0155168003
  H         2.6886539167        1.3979061080       24.6824607984
  H         3.9418141665        1.3002512764       23.7429671523
  O        15.4758737254       -0.4248412797       27.7341076102
  H        15.9217618228        0.4392803604       27.7246158789
  H        15.5700004716       -0.8444999059       28.5930710380
  O         9.0977316226       -4.6096725939       19.6452666239
  H         9.3782517624       -4.7242685748       18.7049139324
  H         8.2511627453       -4.1144692766       19.7160669159
  O         6.5854560328        2.7607692184       29.9171083249
  H         7.2223742003        2.1276526538       29.5900794758
  H         6.0788931182        2.2524147097       30.6427263641
  O         2.3667541069       -1.7594023588       25.3054521689
  H         2.6441272193       -1.1821809735       24.5796193617
  H         2.6028670785       -1.3777278685       26.1809448429
  O         5.2219573295       -7.7869651236       28.4732110791
  H         4.4885733420       -7.3561210334       29.0036865465
  H         5.6692696348       -8.4513090520       29.0483596869
  O        11.5831409124        3.1679910452       16.8180292436
  H        11.1908806766        2.4756147395       16.2025200288
  H        11.2064801710        4.0284896120       16.5369359019
  O         1.8229804725        3.0493272153       29.4684420327
  H         0.8490901854        3.1790274562       29.4323745722
  H         2.1463056981        3.5224042583       30.3055719696
  O        10.5512219598       -0.1722010974       32.7632156821
  H        10.8090715985        0.4370285532       33.4748590780
  H        10.5830521959       -1.0899110247       33.1847046517
  O         2.6673011125       -9.0185685139       19.5650838956
  H         2.9215095869       -8.3048618899       20.1438310264
  H         1.9447852976       -9.5779217472       20.0374648128
  O         0.2924288623        0.0427587641       27.0823998405
  H         0.7190304977        0.7897085533       26.6243902038
  H         0.9981758900       -0.3978235160       27.5332869392
  O        10.4753619151       -5.2881305206       17.4440663430
  H        11.1161957008       -5.7448082084       18.0014977254
  H        10.6748317281       -4.3054920646       17.3343174357
  O         7.9137772821      -11.7849012812       32.3546155902
  H         7.9265681926      -10.9088410813       32.0874142745
  H         8.8402165496      -12.0060129463       32.6951256915
  O         6.4727230832       -4.8221571300       22.8695356339
  H         5.7845847324       -4.1304048293       22.6298652690
  H         7.1085733569       -4.3868541983       23.4709952342
  O         2.3920341878       -7.2199567415       24.0250730275
  H         3.2418910008       -7.6517533859       24.3891792114
  H         2.3939930971       -6.2536302950       24.2637728280
  O         1.4104808490      -11.6912714147       30.8357367344
  H         1.1482716308      -11.2425644057       31.6582752333
  H         1.5655969465      -10.8738676659       30.2354479880
  O        -1.6043304009       -2.9071436193       29.1302605733
  H        -1.6160723353       -2.0619635233       29.6484039427
  H        -0.6149758329       -2.9751472801       28.8775287557
  O        -2.2084394944       -2.7036545825       33.6953445564
  H        -2.6087827770       -3.4099535964       33.1282593708
  H        -1.6976733079       -3.1163439388       34.4493459920
  O         8.4324039521       -8.9079698115       21.8377307173
  H         8.8189283959       -8.0278574075       22.1787892438
  H         8.4015241597       -8.6744085259       20.9071288710
  O         0.9413253381       -0.1087870037       22.6120942162
  H         0.3228230962       -0.6585732719       23.1897129453
  H         1.7371667681       -0.0167095388       23.1712754407
  O        11.1886303276       -4.2912752337       23.7454985458
  H        11.5183019633       -5.1146204025       24.1211703133
  H        11.7449489574       -3.5014516632       24.0480329628
  O        12.9382693599        1.9109836614       20.7631450103
  H        12.0467625649        2.1648746285       20.4393250843
  H        12.9279103120        1.2881118363       21.5209573976
  O         8.5872214115       -7.4358276851       25.8245241253
  H         8.5087312527       -7.1958771618       26.7662712471
  H         7.8500167201       -7.0056664201       25.4024683328
  O         8.2913583116       -3.4582086916       24.5245596875
  H         9.1634062665       -3.8688212204       24.2846511023
  H         8.2993827152       -3.5743906601       25.5958584690
  O         4.9337938798       -4.9615444911       31.2086934280
  H         5.4862399673       -4.5281909443       30.4749036206
  H         5.6479201342       -5.4526644847       31.7672821137
  O        12.6880907091       -8.7061873083       23.5206095325
  H        13.6058534858       -8.3175004429       23.4250888671
  H        12.4271535298       -9.3973031971       22.9045209321
  O        -4.1093483564        0.6863561157       16.9153857225
  H        -4.7823676333       -0.0426274942       16.9958127204
  H        -3.4073345614        0.2835654221       17.5003354506
  O         8.7715535955        4.5442403874       31.2391792623
  H         8.2512489365        5.1853014822       31.7188896698
  H         8.1628479414        4.1386726277       30.6252047204
  O         7.5308252634       -1.4669749560       34.9688662377
  H         7.6428629557       -2.1204848112       35.6830728724
  H         8.4182247920       -1.5661545386       34.5499021646
  O         5.5611039805        3.7803730748       21.8573936827
  H         6.5425138636        3.7089878352       22.0070846148
  H         5.1694092842        3.9761094061       22.8024988561
  O        10.3871517610        1.4599731394       22.4960217345
  H        10.1080537547        1.0676261803       23.3711056088
  H         9.6518748862        1.9999619199       22.1327222447
  O        17.6694026383        0.3952734029       21.9181171766
  H        18.5356956101       -0.0973892013       21.9692490361
  H        16.8775424737       -0.2230398296       21.9244309094
  O         9.7015450667        0.5025231610       24.9954453180
  H         8.7612510682        0.4145900593       24.9634726719
  H         9.9209673825        0.9361601040       25.8617374594
  O        11.1141283786       -0.4292238247       30.1009081748
  H        10.8557823356       -0.1149573045       31.0519874488
  H        11.9908619416       -0.0747645758       30.0557440051
  O         1.5569600948        2.3268666936       25.7091856781
  H         1.8288981592        3.1532221035       26.1806217991
  H         0.8425035683        2.6798448854       25.0798616403
  O        -2.1267429436        1.1846872768       27.4505669848
  H        -1.3153536770        0.5521200820       27.5447086438
  H        -2.9116729360        0.7863655232       27.9116651862
  O        12.8544847598       -4.8451317940       21.1441514244
  H        12.3543683295       -4.9200042353       21.9722676496
  H        13.4819703727       -4.0369223430       21.1201923068
  O         5.0233332563       -3.3816407554       26.3213589860
  H         4.8542180692       -2.4388786350       26.0962415932
  H         4.1029654218       -3.7366509231       26.5417154470
  O        -0.7552744970       -1.4983144049       24.3804756475
  H        -0.1557888464       -1.4309766924       25.1415020060
  H        -1.4496515570       -0.8206938742       24.5586163927
  O         4.9623947562        1.6321218934       31.8553693553
  H         5.1244713103        1.3564001621       32.8298380665
  H         4.1457651052        2.1576709163       31.9595646609
  O         4.7419406725        3.7714289167       24.5696375703
  H         5.0294988781        4.5390008100       25.0916556237
  H         4.5894528474        3.0070121033       25.2086019945
  O         3.1902807613       -6.5803281252       29.8406087252
  H         3.7526684105       -6.0189461960       30.4716284531
  H         2.3073783992       -6.6624911102       30.2894010244
  O         1.1205037060       -2.8907942210       28.7772689943
  H         1.5127824591       -3.5448291489       28.1959970832
  H         1.6607266590       -2.8714306040       29.6119162506
  O        -1.2410518266       -6.9687453365       27.5973337623
  H        -1.4363033572       -6.1141903551       28.1742320471
  H        -0.9108898025       -6.6636995259       26.6495971122
  O         7.5074726964        2.5672168784       26.8138411160
  H         7.7288192123        3.2946985209       27.4643735385
  H         7.5855917027        3.1794602091       26.0328023020
  O         6.3674309295       -4.2498596664       28.6618828502
  H         6.1038164660       -3.6275521357       27.9625288194
  H         6.5196171140       -5.0954517525       28.2413428550
  O        14.4691467772       -7.7417823889       14.7513561710
  H        13.4825386156       -7.4471278920       14.7910433903
  H        14.5728370784       -8.3968150168       15.5012543691
  O         2.6531979013       -4.7220871696       14.9363639649
  H         2.8120382650       -5.3435639478       15.7347254623
  H         2.3014884891       -5.2262313966       14.1525006645
  O         3.1106141374       -6.7992172476       21.0994508467
  H         2.9006855479       -7.3106949272       21.9361828363
  H         2.2365124856       -6.5591381694       20.7807531331
  N         8.8565538029       -3.8301135646       27.0233162000
  H         9.1544923745       -4.8042073945       27.0609879807
  H         9.6257599947       -3.3090064428       27.4593922101
  H         8.1633785874       -3.8175495630       27.7566161681
