     193
 CELL 12.4294 12.4294 12.4294 90.0 90.0 90.0 i =    78520, time =    39260.000, E =     -1096.5017312504
  O         5.5800018871       -0.9498014622       37.7205133887
  H         4.9746379421       -0.2271911901       38.0089002461
  H         5.9568466963       -1.3402267573       38.4827347844
  O         5.3831144103       -7.9277664127       36.9495938868
  H         6.2191541506       -8.5047464505       36.7821525572
  H         5.7348603893       -7.0447556120       36.7942177976
  O        10.1180140482       -4.4057694631       37.0115650646
  H        11.0844752762       -4.3980771881       37.1092601473
  H         9.8492884764       -5.3332488681       37.3930743932
  O         7.7131212642        0.1944119457       36.5078621966
  H         6.7874716537       -0.1195789874       36.8144080001
  H         7.7853148848        1.1166805692       36.7682431032
  O        -4.0112830666       -6.3319084700       33.4876868481
  H        -3.8168499709       -5.5546303734       34.0552156991
  H        -3.7094711533       -6.1317255347       32.6293007664
  O        14.5267067820       -3.7848027327       45.1829456347
  H        13.6387408527       -3.8783363283       44.7645394160
  H        15.1608772280       -4.5176207400       44.8988481855
  O         5.7410813285       -1.9573548365       27.9730966494
  H         5.0346075360       -1.4590028420       28.4348743086
  H         6.5081372853       -1.9490992113       28.5819073315
  O        13.5537600235        3.8866612445       40.1717659216
  H        13.2607012775        4.8790053165       40.1275408607
  H        14.2101081542        3.7896708435       39.3909921764
  O         1.9813446112       -6.7407705775       29.9814095647
  H         2.4191692874       -7.0787021092       29.1513234312
  H         1.2612189015       -7.3642288157       30.2123766581
  O        10.1768583286       -3.5200299645       28.3343284243
  H        10.0741443646       -2.9256166735       27.5874580190
  H         9.5046857949       -4.2048441323       28.1161155892
  O         9.5753548425       -5.1759618259       31.4193895471
  H        10.1047997894       -5.9063919119       31.0300913776
  H         9.0976652569       -4.7188052223       30.6778324308
  O         0.4173693538        5.3346949190       33.2230538588
  H         1.4516960638        5.3440919000       33.1655023394
  H         0.2458511529        4.4596925550       32.8372141840
  O        -2.2113684477        0.5209452511       41.6315397438
  H        -1.5948911493        1.0664256586       40.9902285617
  H        -1.6021319418       -0.1687055073       41.9802445675
  O         6.5451795987       -3.0773079005       32.5533566136
  H         7.2882692577       -2.9463617380       31.9440918470
  H         6.3765705939       -2.1774015732       32.9342929987
  O         6.2740276422        1.9515630974       33.8605765829
  H         5.7309435633        2.6514183186       33.4532273751
  H         7.0712874522        1.9699481527       33.2455537286
  O        16.7235861822       -1.9527348130       35.3969395463
  H        17.1322966006       -2.0835993863       36.2613551915
  H        15.7277934826       -2.2288397575       35.5032109287
  O        12.5615724842       -4.4147376324       30.7508753549
  H        13.3322698273       -4.7941391718       30.2145257475
  H        11.9349808995       -5.1913542336       30.6593190754
  O         9.0658663149        2.8948935861       38.6308234963
  H         8.5677193385        2.7336460169       37.8154262835
  H         8.4940798954        2.5180122031       39.3329189055
  O         5.6816538490       -0.7713925978       33.5309871545
  H         5.8584022524        0.2044483270       33.5075093069
  H         5.0792907853       -0.9766776349       34.2854871987
  O         8.9799445243       -6.7893372241       38.5178822103
  H         8.4432906841       -6.2637853921       39.1609227790
  H         8.8659111641       -7.7394188494       38.7231082084
  O        13.5391984717        3.1872533484       23.9823138922
  H        14.0446261221        2.6574070039       23.2421264400
  H        13.0081595998        3.9291868456       23.5815274408
  O         2.9092088177        3.8718814648       38.2281896389
  H         3.7691846506        4.1466945714       37.9076994571
  H         2.2987797321        3.7033733514       37.4127176171
  O        13.2302040334       -0.1511410060       38.4767817878
  H        12.6762826393        0.5685424006       38.8407109504
  H        13.1406532299       -0.8174965501       39.1720084370
  O         5.7205734024       -9.2457253189       29.3799548022
  H         5.7942221180       -8.2638523105       29.2276872055
  H         4.7745118632       -9.4049755643       29.4002445029
  O         2.8512974673        1.4576693398       35.1517628346
  H         3.3424434813        2.2997649427       34.9383992288
  H         3.0761422352        1.0515426061       35.9967384744
  O        13.0266758727       -4.7656836636       24.2925859188
  H        13.5176353774       -4.7807722949       25.1493850849
  H        13.3946750799       -4.0471678205       23.7697678288
  O        10.6816331751       -9.6648708287       43.1960455676
  H        10.4512670565      -10.5192632440       42.8171875184
  H        10.0136703047       -9.6962485192       43.9441959271
  O        11.6948912430       -1.5549165054       30.2035236587
  H        11.3780492385       -2.5297889162       30.1750602116
  H        11.9981945066       -1.4340264082       31.1242203521
  O         5.5476087468       -5.6825694706       33.2593369471
  H         6.3833089791       -6.1717185039       33.0897231288
  H         5.8737255052       -4.7557899503       32.9659043007
  O         3.5257619486      -11.5334638021       38.1489531586
  H         2.6466572875      -11.8222626283       38.5640199879
  H         3.4738011442      -10.6067153103       38.4201912217
  O         1.6352880329       -2.6644606652       35.4931651578
  H         0.7556342284       -2.1956725498       35.4655313357
  H         1.8695193832       -2.9551753850       34.5551107244
  O         1.2637145501       -1.9599985503       40.6798163522
  H         2.1242606399       -1.6604639678       41.0231539106
  H         0.6664462600       -1.9224135591       41.4092820767
  O        10.9420864750       -6.8825273983       29.8849889045
  H        10.9493299016       -6.5487958331       28.9518049744
  H        10.8796934709       -7.8447165387       29.8704816949
  O         3.7758371157       -0.5433900818       28.9765096864
  H         3.7364306266       -0.9815770133       29.8966200098
  H         3.4827900681        0.3997461935       29.1405686621
  O        16.0517104145       -1.6719383504       31.5752026380
  H        15.3978996142       -2.3060202945       32.0121112933
  H        16.7662647989       -1.2552867808       32.1187763934
  O        15.3201330751        2.2299855683       29.5207555915
  H        14.7161732643        2.6892516659       28.9018105596
  H        14.9988409134        2.5375961647       30.3667660379
  O         9.6057804510       -8.2999646385       34.7592628182
  H        10.3627478396       -7.8104281215       35.1301662659
  H         9.2195258710       -7.6190126163       34.1424845106
  O        12.3519109534       -1.2436252486       32.6972037685
  H        12.9613570275       -0.7758575303       33.3221724868
  H        12.0104346940       -2.0016850827       33.2678152730
  O        11.7209800984       -6.2306961865       39.7389724311
  H        12.1712349949       -5.3409370374       39.6191081106
  H        11.1164537795       -6.4989851513       39.0035500031
  O        15.6088018178       -6.6575795350       32.7205863779
  H        16.5182138268       -6.2763631428       32.9345944346
  H        15.5857513360       -6.9285816120       31.7684545476
  O        -3.2797642583       -1.5772446983       22.4944301270
  H        -3.8887632977       -0.9148742800       22.9119461072
  H        -2.4702501153       -1.3656426201       22.9617119198
  O        11.7432114531        1.9741236785       39.5601605275
  H        12.3870659796        2.6859800677       39.7600506781
  H        11.0401935656        2.3479382955       39.0409921860
  O         9.5786016897       -0.0134787118       45.2395178057
  H        10.4941151708       -0.2633641375       45.1587636847
  H         9.2533282735       -0.4927133059       46.0512427803
  O         6.5434936355        3.9979798089       31.9888044838
  H         6.2191961178        3.4733819460       31.2153180310
  H         7.4908852228        3.8600981410       32.2157310905
  O        13.3544929303        3.1901014477       31.6565341328
  H        13.7737148497        2.3914846230       32.0518280663
  H        12.5044196778        2.8881057307       31.2232987126
  O        20.7457431153       -1.7978929469       30.3424844246
  H        21.1613307865       -0.9831924034       30.7885315926
  H        21.4081756857       -2.0593703956       29.5899576642
  O        11.6378769223        1.3496585582       35.0366653657
  H        10.9403751476        1.9692788496       35.4244326346
  H        12.5628649468        1.6789333843       35.2176538006
  O        13.6283870256       -4.3799229113       39.3792886389
  H        14.2186378130       -5.0725375599       39.7337904230
  H        13.7864489039       -3.5251127950       39.9381166673
  O         3.9180574851        3.8724928052       34.6959217127
  H         4.6211242402        4.2663775196       35.2911573068
  H         3.7251021937        4.4271664725       33.8729872191
  O        -0.6280972134       -1.0519369300       36.1695600759
  H        -0.6025760306       -0.1353491982       35.7722023527
  H        -0.3676482320       -1.0248100925       37.1257374978
  O        16.6269465564       -4.2912390630       29.3236748722
  H        16.6848337417       -3.5913100605       30.0581643343
  H        16.9293833733       -3.7514537213       28.5207039644
  O         8.1076670128       -4.0716622230       34.6003115854
  H         7.5596923652       -3.6567457785       33.8271679124
  H         8.3536978972       -3.3401755705       35.2391261488
  O         2.0307276964        0.6526743101       32.8962366818
  H         2.3733843010        1.0020035381       33.7835088593
  H         2.7730475066        0.2189892170       32.5082322892
  O         7.5457520649        1.4614908087       40.3876971858
  H         8.2047340538        0.9589683807       40.9028405933
  H         7.0760023249        1.8982279260       41.1460323951
  O         8.7841064974        2.3720522498       32.7784857682
  H         9.2639556428        1.4603998632       32.6810628964
  H         9.2671520220        2.9011074598       33.5005384320
  O         7.7561641787       -5.2886507826       40.3707370175
  H         6.9711873229       -4.7980471603       39.9594878808
  H         7.3499206770       -5.7529746630       41.1544056530
  O         3.5065259015       -6.2148818987       39.8724947290
  H         3.9672280560       -5.4129769632       39.5110301347
  H         3.4873576206       -6.9249353143       39.1550517853
  O        -0.5255637880       -7.1866872765       35.6762700761
  H        -0.2848071276       -6.2821354620       36.0961187262
  H        -0.1308382459       -7.1461669432       34.6858552122
  O         7.4277175851        2.8253151597       36.1007550663
  H         6.8808908549        2.3083629077       35.3846356688
  H         8.1045319926        3.3185980861       35.5474539511
  O         8.9957696778       -1.7709753244       38.5741051975
  H         9.2802779329       -2.4569628302       37.9648034535
  H         8.7455765095       -0.9550438002       38.0138943663
  O        19.0584154544       -5.5197635705       24.1921901183
  H        19.4135323366       -5.1068991428       23.3485373151
  H        19.9310399821       -5.7801769452       24.6356044029
  O         5.6995316563       -4.3472315582       26.5914412978
  H         5.9034545864       -4.7371170463       25.6845191559
  H         5.8294659697       -3.3487082302       26.4517696191
  O         5.9962368127       -6.4426707581       29.8214996031
  H         6.0946953125       -6.6930706651       30.7775615645
  H         5.2985564003       -5.7558937978       29.6083562581
  N        11.6884907817       -3.9885544226       34.0374066577
  H        12.5212705840       -4.5971515139       34.0012831000
  H        11.1600463716       -4.1438922437       34.9583403545
  H        11.1674583474       -4.5071897506       33.3321125985
