     193
 CELL 12.4294 12.4294 12.4294 90.0 90.0 90.0 i =    91720, time =    45860.000, E =     -1096.5410384869
  O         7.0096883916       -0.9493955379       45.7972887305
  H         6.2740231696       -1.1108268378       45.1655520906
  H         6.6016367082       -0.3838374541       46.4809257247
  O         9.1069402451       -8.3422616363       42.7218924401
  H         9.7875476199       -8.8358880499       43.2575208333
  H         8.3813444398       -8.3090046301       43.3420478914
  O        10.7017234273       -2.6680753102       46.1920221319
  H        11.1171454392       -3.1809492624       45.4724762952
  H        11.2587129972       -2.8910125565       46.9651590954
  O         8.3558310084        0.7826200708       44.4309842529
  H         7.6180313618        0.3517924588       44.9472449416
  H         8.1457611955        1.6993386975       44.5498714903
  O        -2.9405575352       -5.3379264405       42.3361090567
  H        -2.6103698776       -6.3090728306       42.2994548068
  H        -2.0953747621       -4.8545816175       42.5483933503
  O        16.5542826808       -2.1835346197       52.1693366855
  H        17.1402913207       -1.3678463100       52.0299221836
  H        16.9937777754       -2.8335590703       51.5449397972
  O         7.5246566754       -0.1163448284       37.4273427738
  H         8.5201444781       -0.1209561075       37.4209442723
  H         7.3159702259       -0.9704881849       36.9973096929
  O        14.1707251531        4.6751006116       46.3138678412
  H        14.0947388202        5.4060201611       46.9609298927
  H        13.7142573466        4.9785697500       45.4521379701
  O         6.1955602741       -7.3687988839       34.6289425355
  H         6.0277535526       -6.4942690685       34.1905861751
  H         5.3568430869       -7.8969110441       34.5276123076
  O        12.4055105100       -3.1104136098       36.0986496881
  H        12.6864100968       -2.1720815957       36.2788451434
  H        12.0324778663       -3.4777460760       36.9707031842
  O        11.4085345768       -4.3466553989       38.3528939122
  H        10.5701874152       -4.7160091827       37.9405419164
  H        12.1148073028       -5.0869132900       38.1768398239
  O         2.8362065171        5.9860401035       40.0276304513
  H         3.8160548124        6.1542868224       39.8840228816
  H         2.4513910410        6.3372826699       39.2015969160
  O         0.1461883573       -0.3975746665       48.5891486285
  H         0.1849194094        0.3655268300       47.9791033288
  H         0.8661816726       -0.2211411815       49.3037020052
  O         7.8772390018       -1.9014325753       40.2067893028
  H         8.6514849262       -1.4540185942       39.8007591199
  H         7.5622500544       -1.2906592803       40.9029624333
  O         8.2007885317        2.4832577137       40.1389391794
  H         8.5512269656        2.9795984155       40.9194593850
  H         8.4593954020        2.9491997907       39.2822172802
  O        17.4805936053       -0.7328938451       43.7345618484
  H        17.1834481411        0.2048754016       43.8452704327
  H        16.6874465503       -1.1166437475       43.2546092254
  O        17.7293109601       -4.0176883312       38.0788271188
  H        16.8848008162       -3.8026591690       37.5985640701
  H        17.6745910080       -4.9502510231       38.4510253762
  O        10.0996220607        4.3157050280       46.1531169252
  H        10.4277024179        3.7432593307       45.4322345943
  H         9.6851146970        3.6175888345       46.7149278000
  O         6.9858483285        0.1331388783       42.0787370971
  H         7.4788998830        0.7460591839       42.6344971013
  H         6.4738899628       -0.4653294872       42.7184499234
  O        11.2385195761       -5.8467650473       47.4141699634
  H        10.3516738524       -5.6638613205       47.7711776022
  H        11.0176334418       -6.6378435772       46.8742645342
  O        13.1900016220        4.8612873676       31.2307496598
  H        13.9587774538        4.2907941410       30.8809514320
  H        12.9721806696        5.4839769906       30.4387859655
  O         6.0443271729        5.9821577614       42.9697132949
  H         6.2694049911        6.7987409983       42.4425037743
  H         5.2099270466        5.7604789030       42.5213438227
  O        15.1729640338        0.3822197785       45.9334338091
  H        14.7101044876        0.9622134535       46.5191987679
  H        15.5294026409       -0.3970024242       46.4755128416
  O         6.6871875322       -8.9252333030       32.2202095001
  H         6.4215239418       -8.2188787089       31.5899420470
  H         6.7557183178       -8.4284734097       33.0524015662
  O         2.9838975309        3.4036713846       42.6878222283
  H         3.8042478115        3.4056301683       42.1288939266
  H         3.3079974105        3.0299183442       43.5844904164
  O        13.9036333789       -3.4185645128       30.7529734728
  H        14.2542218769       -3.7014544054       31.6901884847
  H        14.4371483352       -2.6681946842       30.3673584246
  O        11.7085687995       -9.0224963373       49.6149603075
  H        12.1784509817       -9.2525597495       48.8031817389
  H        11.9627832520       -9.8518896743       50.1276681945
  O        15.1396048979       -2.7937647858       36.8949115623
  H        14.2659034104       -3.2274474555       36.8129926708
  H        15.0497173814       -2.1325201166       37.5967511234
  O         7.2245164660       -4.4552144367       40.9627811772
  H         8.1311478324       -4.6870165858       41.2006569370
  H         7.2296910542       -3.5500368651       40.6309725960
  O         4.5444474028      -10.3679492853       44.6558606226
  H         4.3182431898      -10.8520316321       45.5122378222
  H         5.4203538419      -10.0029553497       44.8093742873
  O         2.8512608778       -1.3295040969       41.9940242231
  H         2.3753938011       -0.4750916517       41.7549658967
  H         3.3354850391       -1.7002902994       41.1861281634
  O         3.9359252526       -1.7094824224       47.2307343858
  H         4.8932734262       -1.8672950123       47.3327212772
  H         3.5954916424       -2.1394250856       48.0364598655
  O        13.3079672758       -6.2006013001       37.7084311332
  H        13.2025383549       -6.1474269852       36.7284123382
  H        12.7128175644       -6.9687838400       37.9214639814
  O         6.3487961169        1.2256848980       35.0584080857
  H         6.6616921232        0.8341616314       35.8820131307
  H         5.4908789113        1.7517681694       35.2950610591
  O        17.9816241990        0.3216533208       39.5195034383
  H        18.7506975929        0.1994719629       38.8780616314
  H        18.5481503245        0.4759813917       40.3570396613
  O        16.5280830579        3.2910565093       34.9911236874
  H        15.8114201204        3.3961220650       34.3225249159
  H        16.1101396686        3.4418765436       35.9292787640
  O        11.4217162898       -7.1467748163       40.2797048195
  H        11.9864462003       -6.4352933392       40.7560537660
  H        10.6011017526       -6.7071287344       39.9922709525
  O        14.1935904849       -0.4919451830       38.1662117727
  H        14.9279791192        0.1195443566       38.3536593733
  H        13.5644787705       -0.6047064344       38.9462543588
  O        13.9282620208       -5.3963490697       47.4408624034
  H        14.5482650728       -4.9021607958       46.7870945182
  H        12.9735485174       -5.1492961072       47.2833085939
  O        18.1476734326       -6.4355561526       39.4009494506
  H        18.7548503115       -5.8574511445       39.8755563266
  H        18.4526635870       -6.8401470772       38.5421951839
  O        -2.2890023553       -0.9294137792       30.3947661882
  H        -3.0367959017       -0.4533370231       30.8151315934
  H        -1.4754971221       -0.4210274366       30.6794664231
  O        12.5657802553        2.1593430899       47.2362660752
  H        13.0947463806        2.9703242903       46.9719052730
  H        11.8809417562        1.8129962488       46.6237472540
  O        10.1044094500        0.3900896050       52.7364595951
  H         9.9917000372       -0.1744490894       53.5589606604
  H         9.3362010832        0.9967935114       52.7331918447
  O         8.7221133790        3.4979697326       37.5269483750
  H         8.7256125388        2.8349631274       36.7821293279
  H         9.6622724971        3.6777026835       37.4679178684
  O        15.5502636939        3.7239154938       37.2808338435
  H        15.4383874114        3.0536253491       38.0145577358
  H        14.8410164709        4.4089398028       37.3844973926
  O        22.6364292952        0.1302463266       37.4688761794
  H        22.8966905586        0.1049157938       38.4176552015
  H        23.3765113879       -0.2964905022       36.9881985990
  O        14.1661256584        1.1338962502       41.9172201365
  H        13.4219119819        1.6017157767       41.3494481525
  H        14.8338602219        1.8452077595       42.1336366022
  O        15.3919197652       -4.0474685632       45.6656030090
  H        16.2763770317       -4.4495695607       45.4954861812
  H        15.6117882206       -3.2824125778       46.2204579959
  O         5.3959013032        3.3001339705       41.1207060376
  H         6.1846217045        2.7376608902       40.9819874382
  H         5.4140748766        4.0258031947       40.4887230168
  O         0.0332241728        0.3832750636       44.2393970023
  H         0.6914095498        0.5691003733       43.5387194434
  H         0.4820361917       -0.1030232457       44.9658089446
  O        18.9655252528       -2.4506789710       35.9382301475
  H        18.5548120460       -2.9417115307       36.6926274353
  H        19.4332967480       -3.0073449883       35.2085645148
  O        11.1869560830       -3.5442876377       43.6776321530
  H        10.6476225224       -2.6807090920       43.4586595208
  H        11.9961876317       -3.4098146644       43.1667832518
  O         3.2918317512        1.6833439922       39.1556278275
  H         2.7043792004        1.6736056111       39.9186083749
  H         4.2297931807        1.4334978266       39.3816178897
  O         8.9921934260        2.0402443973       47.6852811101
  H         9.7474457976        1.4140348176       47.4808326174
  H         8.1622354141        1.7987834714       47.2440983770
  O        12.4552025095        2.2403887892       40.1141233779
  H        11.7624939689        1.6313038572       40.3683684725
  H        12.0674858744        3.1438155689       40.2121515784
  O         9.2950538387       -5.1913923560       49.1782301469
  H         8.7550649503       -4.4436871186       48.9719858838
  H         8.6700845290       -5.9009133699       49.5187288085
  O         5.6579573953       -4.8223746842       45.5773777713
  H         6.4252388028       -4.2909371142       45.8518724174
  H         5.9887804696       -5.3372539031       44.8072765441
  O         0.8048689304       -5.7259012524       41.6494430895
  H         1.0368712112       -4.9715239027       42.1941363626
  H         1.6977040004       -6.0364716069       41.3021204765
  O        11.2472498102        2.7967369549       44.2894790451
  H        11.6410968226        1.9124412649       44.3980412789
  H        11.9303779105        3.4944298060       44.1499181671
  O        10.4570344994        0.3918760587       46.4024406758
  H        10.6023719159       -0.6286629329       46.4921945694
  H         9.9421161600        0.5434264163       45.5751142628
  O        20.7190103349       -6.2163773504       32.5501843544
  H        21.2935394324       -5.8520142961       31.8250573655
  H        21.3010570836       -6.9042940370       32.9675797161
  O         8.0677525588       -3.9761613111       34.0601878663
  H         8.3457027686       -4.8397616889       33.6347746984
  H         8.8155911067       -3.3425584058       33.8304214570
  O         7.2058868471       -6.8944435609       37.0415539015
  H         7.7155329422       -7.7348948509       37.2549585470
  H         6.9062960281       -7.0120130160       36.1368729102
  N        12.6635168846       -1.6522573962       40.3074997481
  H        12.0732593963       -1.4434309827       41.0591975074
  H        12.1160537546       -2.3394344724       39.8078481976
  H        13.5038251194       -2.0488763561       40.7204842271
