     193
 CELL 12.4294 12.4294 12.4294 90.0 90.0 90.0 i =    41320, time =    20660.000, E =     -1096.5460472415
  O        -1.5298065584        0.9596928494       19.3059482022
  H        -0.8179003188        0.5536833715       18.6868360468
  H        -2.0512352130        1.6178192837       18.7927052526
  O         2.0174010341       -8.3275677650       14.3258092647
  H         2.6381935850       -9.0278255905       14.5871938058
  H         1.8714306701       -7.8460084721       15.1943655450
  O         1.3466115572       -6.3019197878       16.2620230872
  H         1.3637757385       -6.8984899614       17.0227407825
  H         0.4308294770       -6.0962156176       15.9814547445
  O         0.0611749102       -0.0398959848       16.6967620545
  H         0.9316283681        0.3737458146       16.5223000750
  H        -0.1235962485       -0.8459222784       16.1813303485
  O       -10.3943299729       -4.5641765357       12.8435130817
  H       -11.3016285165       -4.2292808453       12.9949596382
  H       -10.1559592326       -4.0013546397       12.0252630931
  O         5.8728083426       -5.5818022474       21.6685542780
  H         5.6218801069       -5.0199832243       20.9078663419
  H         5.1917524442       -6.2562233228       21.7475328699
  O        -2.2917047919       -0.6331208345        9.0547699235
  H        -2.9344850540       -0.3119661437        9.6925196336
  H        -2.1488328055        0.0256793340        8.2986609541
  O         6.3557313050        4.9788984107       18.9982914648
  H         5.4358912709        5.2385028078       19.1617305730
  H         6.1887448780        4.2764841504       18.3580226784
  O        -3.0864074139       -7.3420014565        5.7476097296
  H        -3.0373767474       -7.3819848408        6.6726556389
  H        -3.7150698861       -6.6245830098        5.4817198451
  O         0.3747201898       -1.5012930573        9.2138412693
  H        -0.4961358969       -1.1016119999        9.4180934431
  H         0.2077865965       -1.7885831343        8.2703216617
  O         1.5507864259       -4.9419698490        8.1730388357
  H         1.9404965298       -4.4244407125        8.9615581449
  H         0.6795249109       -5.2830659478        8.4629118900
  O        -8.5051890329        4.5315475626        9.5032086152
  H        -8.0056232955        3.7997662098        9.7989160713
  H        -8.8038541683        4.8746515769       10.3432269601
  O        -9.3859360519       -2.2647411384       17.4776085864
  H        -9.1291942744       -1.3104224529       17.6466966023
  H        -9.6192821107       -2.2223773188       16.5373756276
  O        -1.5257835883       -3.5361206676       10.7159244776
  H        -1.1019036817       -2.9081570228       10.0695436098
  H        -2.2410791812       -3.0218816932       11.1334905404
  O        -1.1320458580        1.3167685188       12.1140292406
  H        -0.7286959306        1.9527296574       12.7721039852
  H        -0.9739544283        1.7990070602       11.2909732448
  O         8.7785695171        0.4165163613       14.9146149733
  H         8.3545823840        0.6571379555       14.0271947846
  H         9.3370197750       -0.4009394388       14.7833498735
  O         5.2490325640       -3.6910922508        6.1939370675
  H         5.9537667713       -4.1501409034        5.6360847976
  H         4.4965458327       -3.2414114602        5.7209904921
  O         2.2753416705        1.3364868636       16.7952297217
  H         2.6990587656        1.0258269457       17.6945498781
  H         1.7988128085        2.1707407324       17.1680913794
  O         0.5474771196       -0.7220977154       12.5229879433
  H        -0.0476594033        0.0416142253       12.3759424678
  H         1.1855655027       -0.4265760227       13.2081324790
  O        -1.4551376511       -5.9952380192       16.2366503447
  H        -1.3115100713       -5.0738435462       16.6064639961
  H        -1.6925677966       -6.6202608871       16.9740023747
  O         5.9015869820        3.9007696670        3.9021226576
  H         6.7857343070        3.7358597350        3.5075455045
  H         5.6789718694        4.8200367812        3.5766683061
  O        -1.5085999629        2.0254124266       15.9756151625
  H        -2.3951658093        1.6635512001       15.8101163676
  H        -0.8959658245        1.3537355168       16.3671102327
  O         6.0993994026        0.5362664004       18.7100035932
  H         6.7683953108        1.2625910100       18.6138882491
  H         6.4242909667        0.0173865433       19.4409430825
  O        -2.4925197733       -7.8009581049        8.3131983975
  H        -2.0594418250       -6.9823955075        8.6597649832
  H        -1.8447848680       -8.5110013208        8.4494311226
  O        -4.9999843928        2.0047742789       13.0087799755
  H        -4.5503706716        2.8631753989       13.3112227277
  H        -5.7517909241        2.2742400866       12.3691763630
  O         7.3483042412       -5.2889423890        4.9199574325
  H         6.8913184537       -5.9635465777        5.4612678094
  H         7.0544756555       -5.4074949602        4.0130875632
  O         3.4167956160      -12.1110910526       18.8464771597
  H         3.0131717215      -12.2133227177       19.7821129056
  H         4.3955885355      -11.9278241859       18.8723887389
  O         2.4794089347       -3.1797659143       10.3019421800
  H         1.8745360274       -2.4511186147       10.1767735037
  H         3.3941234793       -2.7883400394       10.1278247920
  O        -3.3971625517       -6.7424308875       11.2869985071
  H        -3.0134118496       -6.2805567804       12.0652354725
  H        -3.6150319055       -5.9951101841       10.7435487641
  O        -4.4715705511       -9.9019763351       18.6710396219
  H        -4.3627256803       -9.4944831178       19.5696804079
  H        -4.1017431093       -9.2233947107       18.0484923843
  O        -4.7296676731       -3.5871641338       14.3542543852
  H        -5.6342596748       -3.1838139573       14.4168052059
  H        -4.0910849818       -3.0265686871       14.9107894786
  O        -5.7363920320       -2.1019026301       20.3566775779
  H        -6.1687830525       -2.5740372295       19.6249748417
  H        -4.7788982153       -2.4460716606       20.2262729212
  O         1.8238084064       -9.2821793958        8.4175689242
  H         2.5126720608       -8.6534080479        8.5610197288
  H         2.1331084915      -10.2173359731        8.5351828889
  O        -3.5531929709        0.2563762879       11.7169100883
  H        -4.2518717323        0.9473900750       12.0933379945
  H        -2.7187614096        0.6671199500       12.0174892450
  O         8.0970040648       -4.4905887175        9.9483394764
  H         7.1173789853       -4.7215264109       10.0012590873
  H         8.2300520917       -3.7387413300       10.5570891621
  O         7.5070107787        3.2776998877        8.7352273455
  H         7.0215400989        3.9615302771        8.3238787075
  H         8.1711931813        3.8333914213        9.1783058715
  O         3.4745229650       -4.2901753850       15.1464703896
  H         2.8741078581       -4.8045052745       15.7706435002
  H         2.9379112738       -4.3159119462       14.3070033118
  O         4.7663024458       -2.1907990799        9.9154383102
  H         5.3458398568       -2.1226303438        9.1701492150
  H         5.1900921936       -2.8537776873       10.5654494542
  O         0.7351485955       -2.7308916615       19.3416057239
  H         1.3690654782       -2.4692935978       18.6730995740
  H         1.0694071014       -3.6218494425       19.7451682316
  O         6.5236877064       -7.2268274124       12.4358450659
  H         7.4752261987       -6.9686726508       11.9381772966
  H         6.0682783459       -7.9803780040       12.0405151417
  O        -7.0639329103       -2.2262165343        2.1119726771
  H        -7.7561114446       -2.8315268550        2.4483495133
  H        -6.6609348575       -1.8608778515        2.9482910618
  O         3.9036963916        6.3903778430       19.2666052108
  H         4.1230584559        7.3072757264       19.1027253854
  H         3.1714967952        6.2880749248       19.9310861211
  O         2.4433185142        0.3805626491       21.4113394703
  H         1.7530119816       -0.3059987464       21.5823485595
  H         2.9781143107        0.4600932336       22.2424623664
  O         0.0018769511        5.2360497736       11.4168858491
  H         0.9579533326        5.2339689793       11.5885296913
  H        -0.5771652917        5.0079172050       12.2204989106
  O         5.6276192766        2.6725272204       10.9184417534
  H         5.2618153516        1.7443775442       10.8661435481
  H         6.3714229779        2.5708208761       10.2791912588
  O        11.7438159176        2.9698365411        9.7446327742
  H        12.2301972852        3.6654927252       10.2702024574
  H        12.4818075514        2.5521516670        9.1847267417
  O         4.3020025737        0.3349769000       10.8102620702
  H         4.7051394819       -0.5684619860       10.6019695093
  H         4.1954545153        0.3284762119       11.8255481200
  O         6.5964604117       -1.1177310760       16.4919289446
  H         6.3495726327       -0.5350134624       17.2758432691
  H         7.5092414710       -0.7703904822       16.3954402456
  O        -0.4854435266        3.4029023285       13.9161043616
  H         0.4603464547        3.5556059819       14.1187172579
  H        -0.8962123607        3.0693074362       14.7707967888
  O        -7.9279201323        0.3144301706       13.5781678636
  H        -7.2785474836       -0.3567417898       13.9365325119
  H        -7.8830981525        1.0944299035       14.2369653684
  O         9.2265943853       -3.0338777647        7.8008159871
  H         8.9968969800       -3.7199893592        8.4718919820
  H         9.7031763901       -2.3805237407        8.4033061340
  O        -0.3402225545       -3.0773080954       13.0551206080
  H         0.0004397892       -2.1287667326       12.8387219304
  H        -0.6825297631       -3.4231069425       12.1889503368
  O        -3.7103411049       -2.3931767546       11.8223293036
  H        -3.7244442189       -1.3230845705       11.7869327293
  H        -4.0298544548       -2.7833802948       12.7034429849
  O         0.6027162455        2.9993147658       18.3545893483
  H         0.8943512673        3.1313422465       19.2939699209
  H        -0.3822422002        3.1895047810       18.3843498485
  O         2.5938172391        5.3746452253       11.9397872975
  H         2.4280908903        6.2777106450       12.3770065693
  H         2.6253792300        4.7480508955       12.7258506766
  O        -1.2856288362       -3.5303741055       17.5692448750
  H        -0.5032173933       -3.2963646708       18.0233504710
  H        -1.9737090138       -3.6188557171       18.2980817323
  O        -2.0761353698       -2.1312419579       15.0415183171
  H        -1.5704883303       -2.5477978884       14.2586244594
  H        -1.6857835314       -2.5308321755       15.8470409200
  O        -6.5099110221       -6.1816216369       14.8293941781
  H        -7.2180931373       -5.5515451746       14.8770577162
  H        -6.3502757872       -6.2755685253       13.8951234045
  O         4.1630290046        2.3795656732       15.1299819441
  H         3.6796025023        1.9241792361       15.8031308888
  H         4.8673324801        2.9019088987       15.6662482938
  O         2.3508503817       -1.1880935289       14.7853457083
  H         3.1599638806       -0.6432375197       14.5448024760
  H         2.4687716354       -1.8620731904       14.0524083594
  O         8.2340646290       -8.4307387111        2.6252526755
  H         8.2257549824       -7.4710518883        2.2944479625
  H         9.0046458316       -8.4610837068        3.2256093727
  O        -3.2615186764       -5.8936443779        1.4540590917
  H        -3.8477174095       -5.1392589293        1.5466112059
  H        -2.6242437860       -5.9240526479        2.2145735131
  O        -0.8694502391       -5.6650046399        9.2511034179
  H        -0.5396672726       -6.0273489626       10.0784648385
  H        -1.3690972261       -4.9008282904        9.5680112689
  N         5.5790002966       -4.0738910527       12.0463982015
  H         6.5314952572       -4.0019487149       12.3989856699
  H         4.9363629573       -3.9542672771       12.8227270858
  H         5.5548959765       -5.0584622642       11.7318313099
