     193
 CELL 12.4294 12.4294 12.4294 90.0 90.0 90.0 i =    93720, time =    46860.000, E =     -1096.5490368467
  O         6.7256177966       -1.4196410092       46.7897086335
  H         6.1852994632       -1.2065217505       46.0233489570
  H         6.2523659308       -0.8267778537       47.4431812354
  O         9.1767082656       -8.4321438567       44.1737184815
  H        10.0292334684       -8.8608706927       44.3873103281
  H         9.3072517247       -7.4788857218       44.1392144184
  O         9.7663579022       -2.3418350144       47.8457694728
  H        10.2694222665       -2.8861731637       47.2063013989
  H        10.4132867081       -2.1330690251       48.5608762312
  O         8.5778296499        0.6025064789       46.1029542523
  H         7.9238719935       -0.0915995098       46.4067333532
  H         8.1973293193        1.5463641532       46.2030386205
  O        -2.4523776872       -5.6228202050       43.8500318205
  H        -1.7778803136       -5.7106976633       43.0689754312
  H        -1.9973352281       -4.8688948383       44.3768999032
  O        16.6528709484       -1.0835801248       53.2614838122
  H        17.1564768130       -0.2766329632       52.9474350093
  H        17.0945840008       -1.8543788697       52.8202183549
  O         7.5453893592        0.0183665469       38.5115436613
  H         8.4720464452       -0.2261969399       38.7366118737
  H         7.2016087624       -0.7044278365       37.9082407528
  O        13.6987535078        4.2627807451       47.7838637181
  H        13.1352934254        5.0442671727       48.0272071469
  H        13.7837277224        4.4353090692       46.8108782763
  O         6.3653580218       -7.5196318524       35.7655958324
  H         6.1511756328       -6.7003801594       35.2463166972
  H         5.4780453951       -7.9899439661       35.8608541471
  O        12.0318699206       -2.1674545765       37.3017986186
  H        12.5873169922       -1.4435551261       37.4910108201
  H        12.0002405622       -2.5832266381       38.1918215484
  O        11.6026451900       -4.3574521759       39.6527969926
  H        10.7852359290       -4.4769921992       39.1223114851
  H        12.2258553057       -4.9282279485       39.1531845793
  O         4.1395385103        6.0494058904       41.1431118359
  H         4.9519555929        6.4985086786       40.7961910363
  H         3.8043535168        5.6091414370       40.3245138586
  O         0.6572287970       -0.1710942533       51.0665471631
  H         1.3077234649        0.5157766574       50.9120812803
  H         0.9473600237       -0.6399490027       51.8481786583
  O         8.6940301435       -2.0631866440       41.8353085295
  H         8.8573398965       -2.1814177379       40.8849257801
  H         7.9819907344       -1.3947126546       42.0180590812
  O         8.2549685233        2.7253889356       41.9037496658
  H         8.8643631057        3.3214143697       42.4812503850
  H         8.4387734000        2.8500896258       40.9540875952
  O        17.3312231144       -0.3812459745       44.8204379854
  H        17.0521529761        0.5059237544       45.1204315382
  H        16.5764030093       -0.9284357538       44.6111385105
  O        17.4493492039       -3.4074633257       39.3547149502
  H        16.6491521990       -3.6670294799       38.8797654599
  H        17.7814357189       -4.1623498402       39.8622282713
  O         9.7541791149        3.9521496761       47.2690447246
  H        10.3479322776        3.5425221135       46.6476512231
  H         9.4320697954        3.2980217438       47.9127705502
  O         6.9064025151        0.3248708498       43.0870449538
  H         7.4752109530        0.8137151888       43.6977107891
  H         6.1150658109        0.0840691464       43.6463164652
  O        11.5180324730       -6.7230311338       48.8058606807
  H        11.0402116879       -5.8832308181       49.0187974492
  H        10.9541954959       -7.3241123695       48.2367972944
  O        13.6939560026        4.7248258989       32.3532449898
  H        14.4291952257        4.1497908575       32.0602227215
  H        13.6868675808        5.4848071571       31.6544561058
  O         6.5727030179        6.1189686956       44.5946375230
  H         6.7212983805        6.7807885578       43.8608714817
  H         6.4952048348        5.2546336282       44.2248310642
  O        14.9643717746        0.6777765292       47.3775471233
  H        14.1974673074        1.0978759035       47.8997508891
  H        15.1071788710       -0.1499290545       47.8719300096
  O         7.2930021163       -9.2870685229       33.7181830448
  H         7.9410498002       -8.8116598207       33.1704810361
  H         7.0248670387       -8.6829237017       34.4722715518
  O         3.2170703473        3.2722107137       43.5305498109
  H         3.9421711276        3.7884686616       42.9880593917
  H         3.7194630531        2.9736550716       44.3496025712
  O        13.8592417499       -3.2507448010       32.1026844502
  H        14.3879969991       -3.1542841660       32.9505074718
  H        14.2653603303       -2.5527942823       31.4589267559
  O        11.9392781290       -9.0564864279       51.0896524419
  H        12.5035845690       -9.6921545093       50.6074106182
  H        11.9979182901       -9.4304281569       51.9986378260
  O        15.1275416979       -3.3909368723       38.1713637993
  H        14.3533979426       -3.8431210799       37.6352756269
  H        14.6929478814       -2.9651118592       38.9818842436
  O         7.9618102712       -4.4736469750       42.4563173729
  H         8.7808033702       -4.8957387920       42.8436785794
  H         8.2783625139       -3.5340582869       42.4649063759
  O         4.6332342491      -10.1017829048       45.8732131204
  H         4.1368154389      -10.0153856433       46.7243999177
  H         5.5280224091       -9.6635030680       45.8435589335
  O         2.5867073318       -1.2137882886       43.2657830876
  H         2.1371195794       -0.3277960570       43.2010348542
  H         3.2066033819       -1.1679544399       42.4793980117
  O         3.5532541095       -1.7248537060       48.6757348965
  H         4.5410611929       -1.8277884943       48.8781715972
  H         3.1384589643       -2.1574038593       49.4392625056
  O        13.5842841669       -6.4655658267       38.4707346236
  H        13.6533432498       -5.9811030509       37.6048289152
  H        12.7672908692       -7.0420388778       38.3187161437
  O         5.8175326870        1.3427007903       36.0975088294
  H         5.8299039842        1.2101362188       37.0827335464
  H         5.1109466537        1.9601491562       35.9162067614
  O        18.0652893126        1.1571320566       40.4158759687
  H        18.8500060015        0.9105526281       39.8150668018
  H        18.4886055163        0.9461453706       41.2550058353
  O        16.4121394113        3.7538829511       36.1362766891
  H        15.6013101267        3.9836408423       35.6635234027
  H        16.2138470682        3.8492534332       37.0978961666
  O        11.6530160094       -6.2973018705       41.7049834062
  H        12.5666655852       -6.1276345408       42.0262057934
  H        11.4717636670       -5.6036434819       41.0536189284
  O        13.8987319958       -1.8272439569       40.3912304599
  H        14.8100948533       -1.5174567061       40.6982652153
  H        13.2712885338       -1.9088722365       41.2378884476
  O        13.6153722334       -4.5317175547       48.4989586580
  H        13.9288294258       -4.0638657739       47.7151168947
  H        12.7036877818       -4.2446221359       48.5438886445
  O        19.1621783996       -5.3559221594       40.2109910778
  H        19.8022186592       -5.2994993039       40.9814077547
  H        19.7008803044       -5.6721943477       39.4123348646
  O        -1.7611711119       -0.7171263592       32.1049420196
  H        -2.6262774826       -0.3130558725       32.4549239682
  H        -1.0086595323       -0.2930497907       32.6030253271
  O        12.9387829492        2.0396768057       48.6754444223
  H        13.0912497689        2.9427096405       48.2400573397
  H        12.0725106781        1.6795178588       48.3193009918
  O        10.3411107218        0.7749907172       54.5339271396
  H        10.6357928774        0.5062480536       55.4290098532
  H         9.4480926036        1.2014393158       54.6167829446
  O         8.9925760415        3.0403413524       39.2006408498
  H         8.8006165151        2.5273362494       38.3599948784
  H         9.8826794892        3.4056961439       39.1163721017
  O        15.9018747701        4.5297444351       38.8376564003
  H        15.6315384639        3.6432068855       39.1176912276
  H        15.0366376732        5.0072319560       38.7323788764
  O        22.7309489752       -0.8180054254       39.7584038708
  H        22.6828243549       -0.4090608116       40.6708180758
  H        23.6344308346       -0.6689439375       39.4385358005
  O        13.9837591317        1.2203884724       42.3957302681
  H        13.1192794800        1.7554786398       42.1358142295
  H        14.6591275922        1.8862590200       42.6340980118
  O        15.4053817363       -3.4722127290       46.7484802121
  H        16.1259102749       -4.1642632375       46.6514899725
  H        15.7730150262       -2.8106537237       47.4289264854
  O         5.7854656731        4.2322391652       42.6903978308
  H         6.3313266150        3.5474195439       42.2179665112
  H         5.5194066242        4.9246945626       41.9879619406
  O         0.8304283632        0.7293188618       45.2050325270
  H         1.1174643143        0.8254932759       44.3076404846
  H         1.5881022069        0.3766222866       45.6801594198
  O        18.6228265056       -2.1332412775       37.3678815402
  H        18.2531182334       -2.5968606879       38.2000971527
  H        18.9929430086       -2.9389072689       36.8920923095
  O        11.0605402661       -3.3350663670       45.4266026391
  H        10.6790827621       -2.4104040370       45.0746180128
  H        12.0267552640       -3.2374758821       45.2709432932
  O         2.8417855803        1.8364906427       39.6543579577
  H         2.3653285979        1.4225694540       40.3646630060
  H         3.7635330199        1.5413709997       39.7403014830
  O         8.6743242188        2.1029362441       48.9092062914
  H         9.3521623402        1.3545637105       48.7462525781
  H         7.8121165242        1.6947645841       48.6427445249
  O        11.9131466764        2.8681788456       41.2674070125
  H        11.3232635731        2.2133081192       41.7205536527
  H        11.8858334203        3.7559621470       41.6339574656
  O         9.8589089239       -4.7366809648       49.6975301633
  H         9.6625976794       -4.0086445839       49.1244474244
  H         9.0562187343       -5.2848738711       49.8220816452
  O         4.9669526094       -5.4861575118       46.5844600576
  H         5.6384074780       -4.7800030343       46.7140965955
  H         5.2179629381       -5.7831010790       45.6862818396
  O         1.5702832093       -5.5651024769       43.0635859136
  H         1.7085345181       -4.7027335911       43.5042809524
  H         2.2892523463       -5.7546533430       42.4588457068
  O        11.5189627203        2.8476660053       45.4835035976
  H        11.9973429473        2.0482427971       45.6956326641
  H        12.2359106664        3.4303458308       45.1941355237
  O        10.8322127720        0.6673701872       47.6850155318
  H        10.7763668957       -0.2083212174       48.0392677604
  H        10.1154041496        0.7412783865       47.0303480322
  O        20.8683735892       -5.9601537130       34.3076768460
  H        20.2090591671       -6.1298193268       33.5765212011
  H        21.4253291856       -6.7793106350       34.5533983566
  O         6.8279065984       -4.0945571524       35.6286067513
  H         7.6689442319       -4.7568223664       35.4017178799
  H         6.9986354460       -3.2909274666       35.1117872388
  O         7.7673023692       -6.7082471936       37.8882644370
  H         8.1383195008       -7.5728478569       38.1855250174
  H         7.2076639691       -7.0440097430       37.1608035848
  N        11.9100702699       -2.3285710835       42.0608235243
  H        11.5616200434       -3.0616333784       41.4641936308
  H        12.0606986340       -2.7549096873       42.9686110373
  H        11.1328209844       -1.6768371995       42.1596543618
