     193
 CELL 12.4294 12.4294 12.4294 90.0 90.0 90.0 i =    34920, time =    17460.000, E =     -1096.5424462694
  O        -3.0773334028        0.6903459188       15.8057190583
  H        -2.6481466195        0.1690204491       15.0189644401
  H        -4.0247064277        0.8183941458       15.5241359408
  O         0.3461392513       -7.7690884603       10.8538318843
  H         0.9171775423       -8.5812713734       11.1496389503
  H         0.3550697509       -7.1316905936       11.6457016870
  O         0.3175870389       -6.3300382866       13.1501985810
  H         0.8654604409       -6.7725525450       13.8378581026
  H        -0.6469888933       -6.1782647938       13.5129181419
  O        -1.7593858747       -0.1936360775       13.6358924926
  H        -0.9261013895        0.3772860125       13.6474549554
  H        -1.4693592744       -1.0697889277       13.5088407896
  O       -10.6982512301       -4.0490513858        9.4316269085
  H       -11.6038308968       -3.8376604567        9.7639514047
  H       -10.7500102887       -3.5736335521        8.5666435420
  O         4.5035070524       -5.5683346190       17.7171311503
  H         4.3127208196       -5.2330926418       16.8132340101
  H         3.9540860855       -6.3267597959       18.0340388262
  O        -2.7663383121       -0.6234541027        5.7578002835
  H        -3.0547698136       -0.0606059366        6.5421355400
  H        -2.9103317444       -0.0603691885        4.9244595136
  O         4.6663291442        4.5639767060       14.7439405908
  H         3.9003146397        4.8025126837       15.3128898198
  H         4.2788077110        4.1080775325       13.9062580637
  O        -4.4198357740       -8.1904632036        1.6925901169
  H        -3.5363964213       -8.3363390120        2.0807691609
  H        -4.6074764896       -7.3369340274        2.0055182405
  O        -0.3185841549       -1.6936678646        5.4298332424
  H        -1.2032582122       -1.2400047519        5.5778901614
  H        -0.2105837257       -2.0060229889        4.5350668073
  O         0.8626790349       -5.2838292206        4.8798992154
  H         1.2378125768       -4.7385392102        5.6894497819
  H         0.1870093144       -5.8579250840        5.3031554096
  O        -9.7786562184        4.8135057933        6.2415196861
  H        -9.1140514780        4.0642557068        6.3876434376
  H       -10.1518388162        5.0614043972        7.1208664430
  O       -11.9040398468       -1.9966122161       13.4602920631
  H       -11.3424241471       -1.4409207673       14.0483365208
  H       -11.9657224816       -1.4692209177       12.6967592826
  O        -1.8611807655       -3.7923766348        7.5781479312
  H        -1.4775603589       -3.2204281030        6.8527950072
  H        -2.7955568565       -3.5874717519        7.5862514503
  O        -1.1946902172        1.2312255496        9.0758183411
  H        -1.3944535357        2.1329551661        9.5652285502
  H        -1.2694299981        1.3023739329        8.1065065870
  O         7.7303995891       -0.5998359630       10.8911845473
  H         8.3522312427       -0.7491401681       10.1778440402
  H         7.8676302645       -1.5196006516       11.3315871880
  O         4.0425747943       -4.4385882596        2.6658846013
  H         4.6168746336       -4.8819912755        1.9480210388
  H         3.1335367539       -4.3432987613        2.1441947551
  O         0.1130202578        1.5666692074       13.7582758511
  H         0.8107786070        1.1007638185       14.3066988396
  H        -0.3428425358        2.1579836848       14.4967109914
  O         0.1698701997       -1.0412555836       10.4618162465
  H        -0.1672989940       -0.1329297865       10.2533055346
  H         1.1129869645       -1.0686014424       10.6482395758
  O        -1.9240326414       -6.1181852140       14.5237691762
  H        -2.4010918083       -5.2175360348       14.5628128484
  H        -1.8195795149       -6.4586939387       15.4143948922
  O         3.9323759439        3.7631475290       -0.0568667836
  H         4.5779679127        3.4130109941       -0.6981716069
  H         3.6739088099        4.6019595512       -0.4680223530
  O        -3.5920596357        1.5169690215       12.1035286262
  H        -3.8930209426        0.7288950886       11.6426230746
  H        -3.0292161747        1.0176588958       12.7865608187
  O         4.6449076179       -0.2071588478       14.5403631139
  H         5.3959771592        0.3606290873       14.7107636440
  H         4.8745266292       -1.1383445672       14.8708600206
  O        -3.8395003725       -7.0966872157        4.4488950445
  H        -4.4000671506       -6.4853365699        5.1000395164
  H        -3.2453984882       -7.6425115186        4.9418795959
  O        -5.5196882680        1.7600818283        8.3323983298
  H        -5.9897732252        2.2493129771        7.6348233835
  H        -5.6003753487        2.3732199200        9.0451088930
  O         5.5593822156       -5.8338068378        0.9774078919
  H         5.2657519047       -6.7377044677        1.4424372135
  H         5.0906871957       -5.8322991973        0.0847702868
  O         1.9150986033      -12.6023969529       15.1293019714
  H         1.7166474284      -12.6788982921       16.1080324794
  H         2.8630012452      -12.3353424712       15.0294196169
  O         1.6791282645       -3.3379038229        6.7389918190
  H         1.0129392142       -2.6541877097        6.3619557838
  H         2.5321974786       -2.8899002123        6.4334509302
  O        -5.3716431445       -5.8281487779        8.4631342420
  H        -5.2489738615       -5.2765588393        9.3185084709
  H        -4.6697471054       -6.5148514359        8.5500269368
  O        -5.4157765536      -10.9918400865       14.2232139795
  H        -5.3946494294      -10.1574244141       14.8489804176
  H        -4.8858012992      -10.7853879128       13.4216862400
  O        -5.1135376241       -3.8689413246       10.3821878085
  H        -4.4323125652       -3.5064897386       11.0641009088
  H        -5.9307974200       -3.7116512545       10.9684195325
  O        -6.9826454408       -2.2824254936       15.8666896189
  H        -7.4395351778       -3.1855272379       15.6990269909
  H        -6.0759329725       -2.4352715845       16.1999012836
  O         0.6011517575       -9.0546193192        4.9047374512
  H         1.2350083118       -8.5453112673        5.4585874278
  H         0.7069603434      -10.0170560382        5.1746731228
  O        -3.6136560027       -0.0859490650        8.6049114378
  H        -4.2519103545        0.6413841486        8.4669214161
  H        -2.6766722022        0.3318154909        8.6942777319
  O         7.2440162752       -5.1418731013        5.8534879327
  H         6.3118347580       -5.3785925980        5.6574759021
  H         7.4119150629       -5.3234404039        6.8303079334
  O         6.5282722701        3.3162625325        4.2323323423
  H         5.9497700937        3.8394460894        3.5906379293
  H         7.2439892556        3.9667907476        4.3252530110
  O         2.0384854797       -4.3289824425       12.7855314539
  H         1.2549563916       -4.9031426458       12.5559184524
  H         1.6654597949       -3.4701198263       12.5209376422
  O         4.0059073980       -1.6029126879        5.8925890127
  H         4.6835165023       -1.7459672616        5.2218723199
  H         4.3653017707       -2.1178934581        6.6644466330
  O        -0.3731078031       -3.4508359823       15.6669720164
  H        -0.0016926753       -3.4258025651       14.7409389601
  H        -0.0336848792       -4.2476637567       16.1660550669
  O         4.5345902925       -6.7341539475        8.8381270433
  H         5.5879437814       -6.5876753077        8.6747110541
  H         4.2926118934       -7.6072053024        8.5097913390
  O        -7.0327999740       -2.9871122459       -0.3952111701
  H        -8.0243869710       -2.8292002931       -0.5581466396
  H        -7.0617943727       -3.0790853062        0.5614708907
  O         1.7804443285        5.2470693954       15.3298604869
  H         1.8165821926        5.8791416200       16.0390341878
  H         1.3779964350        4.5388137294       15.9575332790
  O         1.0639312239        0.5472774911       17.9894633799
  H         0.6440683848       -0.2991018617       18.2784628807
  H         1.7387163472        0.7625095854       18.6403851387
  O        -3.1928748882        4.7421868419        8.2119006338
  H        -2.3037220788        5.1324888160        7.9574975062
  H        -2.9814606061        4.1040840717        8.8871144062
  O         4.9942777615        2.9619749853        6.5508753102
  H         4.4915059922        2.1473349834        6.6183047449
  H         5.4746900524        3.0180462188        5.6734526932
  O         9.7156948380        2.8988584643        6.0992340809
  H         9.3428294098        3.3518217438        6.9467640918
  H        10.6199151625        3.1603978973        6.0973989255
  O         3.3170840819        0.7614691027        7.0874597498
  H         3.6743648528       -0.0583208626        6.5661854065
  H         3.3885884524        0.5960383158        8.0608937115
  O         5.1820395806        0.4805378097       11.6204365282
  H         4.9664344578        0.0725127285       12.4734393684
  H         5.9598791961        0.0386542089       11.2604585635
  O        -1.9641536265        3.3165937782       10.2745232407
  H        -1.1734658241        3.8424313508       10.6176358811
  H        -2.5061940150        2.9298543304       10.9801179228
  O        -9.3637806638        0.5945589208        9.8541297252
  H        -8.5721870449        0.8194990141       10.4762585049
  H       -10.0972987677        1.2668912191        9.9985065869
  O         8.1290120368       -2.9668191090        4.4912709772
  H         7.9150780681       -3.5953899270        5.1892554483
  H         8.6155169802       -2.2210804057        4.9357563279
  O        -0.9678015086       -3.5175196183       10.2052930814
  H        -0.6612693156       -2.5572625105       10.2275492818
  H        -1.4850713860       -3.6387026032        9.3797950608
  O        -4.4395583061       -2.9077820443        8.0262150650
  H        -4.2377096509       -1.9464819537        8.2373494091
  H        -4.7163117836       -3.2327815972        8.9890618359
  O        -1.5646299629        3.0791067591       15.3696260361
  H        -1.0868799691        3.4816138690       16.1210673076
  H        -2.2085257542        2.3989876249       15.6388520381
  O         1.4700157762        5.6398350789        8.5230188998
  H         1.6544498711        6.5603464058        8.8997403808
  H         0.9626367909        5.1652999300        9.3069534231
  O        -3.0290759113       -3.6127636982       14.6056291840
  H        -2.1597717489       -3.3714796343       14.9844389711
  H        -3.7353375588       -3.4434866288       15.2676748240
  O        -3.1551639683       -2.7065111029       12.0173536984
  H        -2.3990758673       -3.0797030726       11.4719570740
  H        -3.0578949267       -3.0669090490       12.9307310580
  O        -8.3276684450       -6.2332996031       11.2928794830
  H        -9.1253656258       -5.6723844184       11.2557416773
  H        -8.0973736616       -6.5325869981       10.3562586278
  O         1.7508267601        2.5522959743       11.6120886112
  H         1.2098202282        2.3548243036       12.4336842674
  H         2.6607626255        2.7219397981       11.9553100353
  O         3.0519950200       -1.9703902275       11.0996997321
  H         3.4521139843       -1.2459351925       10.6469160402
  H         2.8174504023       -2.6411513859       10.3794856655
  O         6.1169806938       -9.3142408030       -1.4327830027
  H         6.4938342817       -8.3932130032       -1.1395981884
  H         6.5074240275       -9.9417929898       -0.7861071749
  O        -4.7958710006       -6.9846325918       -0.7891511751
  H        -5.2825237512       -6.1532428167       -0.5276783873
  H        -4.6010714255       -7.3683327630        0.0980564730
  O        -1.0392234173       -6.5545309584        7.0478332145
  H        -0.1466138741       -6.7459158356        7.5272869772
  H        -1.3108552002       -5.5960888313        7.3587642843
  N         4.8118365911       -3.3820038279        8.0199347145
  H         4.9464603650       -3.0085164131        8.9356507658
  H         4.1638708656       -4.1892574362        8.0848838113
  H         5.6400300422       -3.8533522365        7.7483485430
