     193
 CELL 12.4294 12.4294 12.4294 90.0 90.0 90.0 i =    71720, time =    35860.000, E =     -1096.4898708298
  O         2.7071102139       -1.8518790663       34.8365987282
  H         2.3648538949       -0.9216663294       34.6732108182
  H         1.9310284748       -2.2871466007       35.1543107736
  O         4.2201452964       -9.4998382561       32.4744093128
  H         4.9942061879      -10.1040779300       32.6559292515
  H         4.6951715321       -8.6452770846       32.3401244010
  O         8.8328148889       -4.9549956974       32.9398626886
  H         9.8337368252       -4.9512808337       32.9396791592
  H         8.5642315386       -5.7921125342       33.5052655131
  O         5.0367552542        0.4197431190       33.0134851124
  H         5.1780493043        0.5107732313       33.9500715765
  H         4.8266754650       -0.5003519533       32.8744814004
  O        -4.7393020771       -6.6081617337       29.3911228989
  H        -5.1538555858       -5.9259399075       30.0044359501
  H        -4.9738124595       -6.4416461731       28.4350447246
  O        12.1831388818       -5.2325319979       40.7657276421
  H        11.8977169682       -5.2574124052       39.8162238207
  H        11.9812672158       -6.0975324403       41.1157202164
  O         4.7260318266       -2.0139192028       24.2262894451
  H         3.9455722258       -1.8591664566       23.6304741404
  H         5.4094350016       -2.4764447289       23.7013732976
  O        12.4134532662        3.3066716363       36.2931354947
  H        11.4311449878        3.1516337081       36.5825609213
  H        12.3505430706        3.1538329104       35.3687535078
  O         1.5187659764       -7.3103332115       25.3317437042
  H         1.9038275605       -6.5491792548       24.9106276174
  H         1.2562064213       -7.9211316845       24.6073964798
  O         7.4131111133       -3.8048376146       26.6060869816
  H         6.8640472424       -3.6148314281       25.8065571376
  H         7.8032529158       -4.6913533011       26.3772712913
  O         7.7333611876       -6.5877480729       26.5388974635
  H         8.4528925788       -7.2007814573       26.7781288026
  H         7.0479084486       -7.0928905703       26.0909922471
  O        -0.5357243715        4.5568957309       29.1356089984
  H         0.3255029585        4.0614606463       28.9868905189
  H        -1.3000310481        4.2870724026       28.5182220220
  O        -4.5229925522       -0.8564484163       36.3059805891
  H        -4.0045023300       -0.0419573096       36.2850940345
  H        -3.7431238335       -1.4043651300       36.4837431272
  O         5.1439639027       -4.6548151879       28.2099088428
  H         6.0226548452       -4.5447377270       27.5900733712
  H         5.3829306759       -4.1335657122       29.0271264382
  O         3.9372782571       -1.0031071406       28.3336032540
  H         3.6906064982       -0.2432892639       28.9209280845
  H         4.6961924671       -0.5560003759       27.8920222281
  O        16.0322707513       -2.3552289941       32.3027976633
  H        15.7907270188       -2.2775275992       33.3103202100
  H        15.1227699300       -2.5243865409       31.9409462019
  O        11.1564804939       -6.3332100672       26.0466418954
  H        11.9357589912       -6.4860407497       25.4761297216
  H        10.4696834843       -5.9106532722       25.4883402303
  O         7.8429004630        2.9021106944       34.8172059072
  H         7.7174597207        2.5933124842       33.8461839275
  H         7.1499581097        2.3968428371       35.3594761242
  O         5.2751283171       -2.7077304929       30.1664434858
  H         4.7868542135       -2.2114514882       29.4199599967
  H         4.7351625186       -2.4832302735       30.9812365131
  O         8.0114182559       -6.8546650431       34.5372572450
  H         7.5412886795       -6.5474138611       35.3429925785
  H         8.0225245395       -7.8497606432       34.6551869877
  O        12.6001866349        2.9446215473       20.7183722982
  H        12.7455847154        2.1663643494       20.1345220523
  H        12.0939773589        3.5962755238       20.1760937001
  O         2.5597483532        3.4438953223       34.6316819382
  H         3.2757460380        3.3245226636       33.9442157612
  H         1.7457023490        3.4372061515       34.0136862732
  O        11.5941273771        0.4405649861       35.4315120093
  H        10.9814015278        0.9889122669       35.9422438338
  H        11.9435211661       -0.2975467950       35.9938783810
  O         3.9728398249       -9.5837739215       24.9952235095
  H         3.7319773588       -8.9081484922       24.3519184127
  H         3.0675134230       -9.8888811115       25.3044663593
  O         0.4665027306        0.7644194047       31.6549493712
  H         1.2419870673        1.1705958618       31.1277687942
  H         0.8057327119        0.4190624727       32.5416033903
  O        11.6188364867       -4.9876630651       20.6440538789
  H        12.1123729522       -4.9177013343       21.4540411926
  H        12.0563080946       -4.5269260487       19.8057607486
  O         8.5347070741      -10.5174357222       38.7980396810
  H         7.6237347070      -10.1491033285       38.8794848492
  H         8.6790095820      -11.2263901476       39.5036409388
  O         9.9831991245       -2.5636158196       25.0003982429
  H         9.5752605223       -3.4996694087       24.9738854582
  H        10.1206622739       -2.4850799780       26.0227372319
  O         4.0423468696       -7.0179609958       28.2250698950
  H         4.4816324333       -7.7388148877       28.8886479792
  H         4.5425947316       -6.1832461851       28.2890412244
  O         1.7662545528      -11.9728748782       34.3418103673
  H         1.1039599696      -11.5905201527       34.9225091550
  H         2.4702480679      -11.3507817996       34.2228613988
  O         0.4468891141       -3.8003782455       30.8062568955
  H        -0.1393350135       -3.0291058300       30.6320773048
  H         0.5792201056       -4.2801536824       29.9674072648
  O         0.2634526194       -2.0689605357       36.5952912815
  H         0.9053544443       -1.8765528471       37.3809127320
  H        -0.6472919304       -2.2836311216       37.0412937617
  O         9.8096798656       -8.2978120385       27.1968338485
  H        10.4530457958       -7.9005689050       26.5491352654
  H         9.4691720532       -9.1398300385       26.8024390084
  O         2.2936487320       -0.9511169238       25.9058144263
  H         2.8351356838       -1.0276382057       26.6961436934
  H         1.9650734596       -0.0268454133       25.7842748521
  O        14.6072200101       -3.9253980741       27.7796953170
  H        13.8673515865       -4.5998409802       27.7808086883
  H        15.4940464911       -4.3158439197       27.9328019907
  O        13.8746990256        1.6508444506       25.5773408423
  H        13.3343845889        2.1673754705       24.8568440433
  H        13.1792848615        1.5853960918       26.3488404636
  O         8.9485227531       -8.7709898359       30.5292862602
  H         9.6045181505       -8.1592598261       30.9590226437
  H         8.5611958919       -8.1541843927       29.8394533301
  O        10.4566068207       -2.1231955593       27.7327648567
  H        11.3419058750       -1.7877814566       28.1294436554
  H         9.9507716484       -2.7328004432       28.4924927718
  O         9.4929918103       -5.0772886117       36.7523744390
  H        10.2274160188       -5.1472723350       36.1284787116
  H         8.6286179547       -5.1821968506       36.3245564786
  O        14.2801567039       -8.7156826069       28.3894109523
  H        14.7371724471       -7.8962006759       28.2263658743
  H        14.2443074900       -9.2169632106       27.5110623397
  O        -4.4227585154       -0.1818679138       18.9286195697
  H        -4.8688303808       -0.9720153163       19.3287409458
  H        -3.5730956590       -0.0373018986       19.4621368748
  O         9.8348652595        2.2869205508       36.5300500225
  H         9.1811237682        2.2405157409       37.3409050471
  H         9.3015804309        2.5823942758       35.7526113847
  O         8.6180796869       -0.1473825690       40.6977557259
  H         9.2882018582       -0.8743176222       40.5539697733
  H         7.9129239378       -0.5309378307       41.2329805298
  O         6.3169430988        3.3158774979       26.6813681403
  H         5.4646283047        3.0726804225       26.2167458640
  H         5.9417524173        3.3831875699       27.6031131504
  O        12.3183660564        1.1710957144       27.8936786851
  H        12.7353474150        0.3178813693       28.1866331412
  H        11.5327411742        1.2408137875       28.5384882770
  O        18.2090845390       -0.2005741797       26.2511095748
  H        19.0882777212       -0.6324834937       26.3269184239
  H        17.7321579095       -0.8325702575       25.6228199894
  O        10.3376681242        1.4414887687       29.7355404532
  H         9.7973836214        2.2903481977       30.0047069622
  H         9.6137965686        0.7561718721       29.6677138394
  O        12.5038169212       -4.8463841523       35.8475518853
  H        13.3890076519       -5.2592424734       35.6665848908
  H        12.6163481083       -3.8876687081       35.9668820921
  O         2.6347877104        1.6338726451       30.2496971018
  H         3.0237658901        2.1721067763       30.9466187258
  H         2.3053796592        2.3432721389       29.6062833675
  O        -2.0627245826       -0.3031962292       32.6910825263
  H        -1.4473791964        0.1817950455       32.0281569798
  H        -1.9296523754        0.1880136699       33.5035301714
  O        15.6576860835       -4.1404017820       25.3192270948
  H        15.1799244652       -3.7567697819       26.1500248009
  H        16.0770624331       -3.4799571907       24.7510834911
  O         6.8760815559       -4.8452572334       31.1315523283
  H         6.5227215821       -3.9937990781       30.8739105302
  H         7.5800391698       -4.7431944752       31.8574011720
  O         0.7099754431       -1.3055737211       28.8702465745
  H         1.0668824731       -1.0918772731       29.7646013721
  H         1.3469364099       -1.9979398586       28.5885892275
  O         5.9952066084        1.2739510244       35.9007332733
  H         5.9594502752        0.4381693887       36.4054878483
  H         5.2199898044        1.7211099606       36.3490889535
  O         5.5044425438        3.5645975799       29.5738843912
  H         6.1062590801        4.3252168857       29.9125725074
  H         4.9250528542        3.3731568284       30.3595127385
  O         6.5376074138       -5.1497131870       36.4125664230
  H         5.8781111426       -4.9456102789       35.6390870248
  H         6.0123379203       -5.7270076625       37.0356431362
  O         2.4080109430       -5.9657590220       35.1187170719
  H         3.1579114618       -5.9482128415       35.7398142367
  H         2.4327281138       -6.8485194766       34.6300481522
  O        -1.1391664762       -7.6828979627       31.8017507274
  H        -0.8640075720       -6.8369499152       32.1505834698
  H        -0.7599925560       -7.6998425216       30.8687320339
  O         7.0581954651        2.3329261824       32.2396809536
  H         6.8921419682        1.4279263408       31.8749738989
  H         7.5023851529        2.8748933416       31.4814414730
  O         6.9275844419       -2.2170933918       33.4424398261
  H         7.5902584993       -2.8871132833       33.4228374686
  H         7.2477428995       -1.5421359678       34.1539889974
  O        17.8780852108       -6.7677261647       20.0980908464
  H        18.2832431327       -6.0570496090       19.5188853751
  H        18.6859510151       -6.9165116874       20.6369391356
  O         4.8267933519       -4.2038571478       21.9928195584
  H         5.2624040023       -3.4850201635       21.5787739504
  H         4.5539315431       -4.7317762063       21.2664089991
  O         4.5823177876       -6.3705860262       25.2305651433
  H         4.5560292001       -6.7279588345       26.1610836500
  H         4.1666317052       -5.4245028227       25.4683807533
  N         9.1898491424       -3.3479649016       29.7761971806
  H         8.2394761137       -3.6132482085       29.4182243226
  H         9.4091478063       -4.1171391048       30.4318090879
  H         9.0327889774       -2.4801334023       30.3615587160
