     193
 CELL 12.4294 12.4294 12.4294 90.0 90.0 90.0 i =    54920, time =    27460.000, E =     -1096.5073258292
  O         0.5948086047       -1.0378007238       26.2028765955
  H         1.5352474433       -0.6690353395       26.0647558404
  H         0.1364773999       -0.3247641760       26.6859398214
  O         3.4706909397       -9.2420462308       21.7459140174
  H         4.4555910297       -9.4087382300       22.1379907378
  H         3.1029577496       -8.3879409264       22.1344101131
  O         5.1482483720       -5.9844562521       24.1559954599
  H         5.5450383103       -5.9867041158       25.0924373249
  H         4.3962868800       -6.6822509879       24.1756972186
  O         3.2398086626       -0.3863205099       25.5825845550
  H         3.8812915969       -0.2074500428       26.3232478642
  H         3.2655332471        0.4470275469       25.0574948273
  O        -7.6245390166       -4.9336546266       20.6869993578
  H        -8.3026751495       -4.3106088224       20.9728076303
  H        -7.2700593000       -4.5056945995       19.8456763682
  O         7.8368366660       -6.2709313135       29.9328161082
  H         7.1370289955       -5.7693151909       29.5317487962
  H         7.7561579649       -6.4478232920       30.8596770246
  O        -0.0127647235       -2.7498434902       15.9984947481
  H        -0.3327558308       -2.0547909361       16.6268127645
  H        -0.3581892400       -2.3245846596       15.1931075139
  O         8.1466431491        4.1926974317       26.4653557930
  H         7.7153460483        5.0837436579       26.3501001677
  H         8.0328006760        3.7703126238       25.5523861177
  O        -1.4183756760       -6.4160439221       13.7041492925
  H        -1.5575761621       -6.1091819511       14.6775970486
  H        -2.1465357613       -6.9976351256       13.5041319660
  O         3.0754688134       -2.3307791493       16.5078656133
  H         2.2171140180       -1.8789872284       16.3270270651
  H         3.3030293460       -2.7479326923       15.6294353235
  O         5.4625001532       -5.0677026922       16.2967676179
  H         5.6689337330       -4.2350295811       16.7913922712
  H         4.5777100723       -5.2810876252       16.6917550245
  O        -3.9538508883        5.2244845636       20.0950208752
  H        -3.7543828991        4.2391868002       20.0820164990
  H        -4.9321679519        5.3315806359       20.5018884900
  O        -5.7887275168       -1.3145888153       24.1854194099
  H        -5.8657579531       -0.9679977455       25.1485681195
  H        -6.5055946169       -2.0189221528       24.0804860749
  O         1.8841650272       -3.6817647109       18.6530321982
  H         2.3293874272       -3.1330846020       17.9667507895
  H         0.9234249104       -3.5582787454       18.5484210585
  O         1.5022180562        0.0650139774       18.4857474181
  H         1.3588069995        0.8292877619       19.1306391873
  H         1.9355149566        0.5388626955       17.6816895766
  O        14.8191660159        1.4740717820       23.7907310216
  H        15.3635364983        1.9898467950       23.1729114584
  H        14.0081946779        1.2965107235       23.2661552178
  O         8.1304672286       -3.3476552101       13.2156953636
  H         8.8696608654       -3.9262743921       12.7953390020
  H         7.8560116367       -2.7140696583       12.5068776926
  O         4.8126443802        2.2796979690       25.4713877622
  H         5.6755596475        2.2310584969       25.8785669650
  H         4.4215078333        3.1497857406       25.7817976987
  O         3.5405303594       -1.3423840369       19.7692458121
  H         3.0764448047       -0.7114994568       19.1326117190
  H         3.9187356018       -0.7998263917       20.4556902060
  O         2.5748333321       -7.1662640722       23.8697638385
  H         2.0517438789       -6.3642821793       23.6502772488
  H         1.9269012966       -7.6761554326       24.2672786139
  O         7.9978882330        3.0129533676       11.5543747555
  H         8.8210673664        2.4237823933       11.3648515592
  H         8.1871154563        3.7657572249       10.9635180322
  O         0.9132300849        3.4293694615       25.3433592095
  H         1.6357886613        2.7588510186       25.0838550338
  H         1.1795632436        3.7485904018       26.2807526554
  O         9.4975757140       -0.4784726937       27.7316102433
  H        10.0657261849       -0.6449754915       26.9204697146
  H         9.4429647854       -1.3033794765       28.2783990878
  O         1.3949409394       -6.5624589170       15.0372823493
  H         1.7034754733       -6.4139937947       15.9722908607
  H         0.4960885834       -6.8852935548       15.1351634666
  O         0.0101799244        1.1146267086       22.4137312018
  H         0.1840169919        1.5171269120       21.5104288535
  H         0.2419786587        0.0944928925       22.4279673124
  O        10.1147261015       -4.5713810488       11.9927690037
  H        10.7262115278       -5.1037566672       12.6203223808
  H        10.5823735423       -3.9917034137       11.3665050043
  O         6.8609560646      -13.0288183778       26.7492357871
  H         6.0841315376      -12.8991773880       27.3805551269
  H         7.7577852897      -12.7838888952       27.1969408009
  O         5.3540769073       -3.2569921075       18.5431981541
  H         4.6570203117       -2.5992812800       18.8147616423
  H         6.2110261340       -2.7460461627       18.6704666796
  O        -0.7650508534       -8.2587528284       19.9363291629
  H        -0.4173333233       -7.9971743880       20.8069894139
  H        -0.9738428741       -7.3021863815       19.6052192304
  O        -0.9414339490      -11.1514361410       26.2971309323
  H        -1.3856665914      -10.5918694238       26.9398525555
  H        -0.1825699235      -10.6122009246       25.9232083756
  O        -1.7342205842       -2.6373248761       22.3203175679
  H        -2.3509458538       -1.8857610830       22.1849831763
  H        -0.9428255043       -2.2943473673       22.8460302472
  O        -3.7461416469       -3.5182866217       28.5201124226
  H        -3.7796630625       -3.2590691782       27.5718006870
  H        -2.8987147400       -4.0010131861       28.6162750206
  O         6.8579178590       -8.8251133324       16.3283575175
  H         7.1722522247       -7.9550016171       16.7207648296
  H         7.3025328200       -8.7513829546       15.4126155259
  O        -1.0603099955       -1.1398537900       18.0436661954
  H        -2.0514184704       -1.0859898320       18.1378217358
  H        -0.6158302075       -0.3382454047       18.3909814415
  O        10.8220246959       -6.0416819904       18.9640226818
  H         9.9134847428       -6.3960578217       19.0697267374
  H        10.8394446696       -5.0290464207       19.2736971457
  O        10.5237186932        2.9852509859       15.7778044932
  H         9.7835368263        3.6328768968       15.4933083998
  H        10.0511259791        2.3754479926       16.4480001712
  O         6.1747009259       -7.0950698228       21.6194230319
  H         6.3486102362       -6.8183307045       22.5493765598
  H         5.4363017940       -6.4973096720       21.4084993316
  O         8.1158858546       -2.4319409605       18.5916003655
  H         8.2264127716       -2.9042864769       17.7402509674
  H         8.3519906760       -3.0787235960       19.3431720930
  O         3.5980355677       -3.4898112941       26.5063961619
  H         3.7753021952       -3.0237626189       25.5753802151
  H         4.0494075642       -4.3697353755       26.5124444617
  O         9.2115018409       -9.6116867082       20.2433855212
  H        10.0645209412       -9.3664220261       19.8880268738
  H         8.8756434565      -10.1217314021       19.4839651910
  O        -4.0586604891       -0.7979388417        9.7875927365
  H        -4.6201005551       -1.0640515920       10.6083297947
  H        -3.6765554706        0.0845145922       10.0882055128
  O         6.7832450477        6.5940590524       26.2577711375
  H         7.1672453164        7.4753411415       25.9484820820
  H         6.3399539941        6.7859000901       27.1339852117
  O         4.7436555092       -0.0511194023       28.6488000547
  H         4.1832900625       -0.8604048606       28.7790904458
  H         5.2423436360        0.0038925726       29.5077484793
  O         4.1132295812        3.9773497488       17.0775126115
  H         5.0728288751        3.7496179596       17.0072379164
  H         4.1570781944        4.5362855974       17.9139201842
  O         8.5593434048        1.9573051267       17.5534507494
  H         7.9183964278        1.3203075770       17.9223422901
  H         8.0136005094        2.6967873808       17.1775189482
  O        14.9128866915        1.4853301687       16.3037813308
  H        15.2578022117        2.4414114728       16.3977043556
  H        15.7878605827        1.0704065072       16.1980014097
  O         6.4334458473        0.0674240054       18.6771919299
  H         6.8259094794       -0.7848504469       18.4875753417
  H         6.2005780861        0.0651028371       19.6371841221
  O         9.8302847520        1.1283058103       24.0051354026
  H        10.3080514784        0.9842637082       24.8340384481
  H        10.5696958441        1.0119249529       23.4050276242
  O         1.1699199305        2.2777098780       20.4180095586
  H         1.8993623698        2.5987698481       20.9402097132
  H         0.6692686654        3.0179441872       19.9829967649
  O        -6.7001383497       -0.0223779552       21.3070987633
  H        -5.9278842454       -0.5603354482       21.5719654601
  H        -6.5093557463        0.7875005159       21.9002699119
  O        10.9156641220       -5.2577165097       16.1569469930
  H        10.9326566216       -5.5889906722       17.1477833337
  H        11.4214386227       -4.3998470056       16.1093825910
  O         2.5629755747       -3.2363081879       21.7626244954
  H         2.4132854289       -2.8722945131       20.8778875321
  H         1.8711576117       -3.9310159293       21.8985499979
  O        -0.9319212514       -3.5179481892       19.6967924277
  H        -1.0474675303       -2.6379800732       19.2940052736
  H        -1.2182844209       -3.3323290792       20.6584566435
  O         3.6180613902        4.2794334704       26.5811266156
  H         3.7616348436        4.1749667931       27.5692557102
  H         2.9703850217        5.0226775355       26.4576004959
  O         3.7133616569        5.1060417432       19.5236910898
  H         3.9390067753        5.8509235616       20.1115310503
  H         3.9381564587        4.3281891757       20.1178276806
  O         0.8313780660       -4.3983724553       25.7245890215
  H         1.5157300209       -3.7402208694       25.9115755262
  H         1.0884751183       -5.1597565356       26.2830892622
  O         0.5712707831       -1.4641236452       23.4594812701
  H         1.4798351969       -1.8123335410       23.3683472857
  H         0.3756856095       -1.5815165012       24.4099444597
  O        -3.1779436287       -7.1462917545       22.9298453758
  H        -2.9582791112       -6.2737567135       23.3926442984
  H        -3.4280010163       -6.8457202315       22.0266223341
  O         5.5160134009        2.0628629837       22.9465299720
  H         5.1829560994        2.0163545534       23.8847462440
  H         6.4042287793        2.3956315121       23.0770665633
  O         4.4733181952       -3.1746001828       23.8343208296
  H         4.1251730701       -2.9240770282       22.9403327657
  H         4.6789976464       -4.1382022936       23.7429975778
  O        12.0237016999       -7.7060883919       10.6256716499
  H        11.0561645539       -7.6665592775       10.6994577477
  H        12.2979072382       -8.5542067309       11.1187395469
  O         0.6251199972       -5.1337955093       10.7120405549
  H         0.6981762991       -4.8544847057       11.6614789856
  H         0.2024500825       -6.0212655738       10.6563097563
  O         2.6302580407       -5.8441306598       17.4851562784
  H         2.5516923497       -6.4593470655       18.2601005804
  H         2.1384977770       -5.0528891239       17.7816482743
  N         8.1069766477       -4.2485007252       20.9415861117
  H         7.2802993269       -4.7209659377       21.2569983257
  H         8.9753626008       -4.8026235989       21.0344754867
  H         8.2187532734       -3.3778547357       21.4934850557
