     193
 CELL 12.4294 12.4294 12.4294 90.0 90.0 90.0 i =    41720, time =    20860.000, E =     -1096.5350039944
  O        -1.3479453687        0.9427183573       19.7813854286
  H        -1.0821341581        0.5198069989       18.8791172933
  H        -2.0716718382        1.5941987698       19.5501595262
  O         2.4252036190       -8.2294351355       14.5125958967
  H         2.9779984722       -9.0812568698       14.5624935085
  H         2.3059781692       -7.9448662850       15.4382978319
  O         1.7011394956       -6.1118751095       16.5896743757
  H         1.9065171263       -6.6214939368       17.3752342175
  H         0.6866901856       -5.9828851884       16.5808787374
  O        -0.1588677522       -0.1256898208       17.1971321568
  H         0.7439417742       -0.0786809525       16.7384509405
  H        -0.5862976136       -0.7763649753       16.6444757293
  O       -10.0787881895       -3.9141832339       12.8235543312
  H       -10.8296633391       -3.4201045417       13.2024151395
  H        -9.8605419578       -3.3955286743       11.9697370786
  O         5.5222063031       -5.2881984071       21.9677089673
  H         5.1314666894       -5.3813302350       21.0463198530
  H         5.0633231236       -5.9250942173       22.5286134612
  O        -2.0638415299       -0.7462917075        9.1712993705
  H        -2.3590607167       -0.1998188623        9.8784635455
  H        -1.9281556872       -0.2126375411        8.3715212508
  O         5.2888783317        4.5083642498       19.3087382633
  H         4.5209660141        5.0743668944       19.4649926506
  H         5.1569425072        3.9261856045       18.5514197834
  O        -3.0602061701       -7.2718232757        5.1367788384
  H        -2.7683091645       -7.3098381478        6.1303293078
  H        -3.8187266262       -6.5986029332        5.1703879013
  O         0.5319652883       -1.5879230147        9.0225858268
  H        -0.3407463212       -1.1929897902        9.1577340385
  H         0.4868466555       -2.0647320671        8.0931059464
  O         1.4582562945       -4.8498719973        8.6962883034
  H         1.7078746262       -4.1876442193        9.3899098922
  H         0.6243658468       -5.2690937130        8.9302749356
  O        -8.7815791823        4.2659063750       10.3732587750
  H        -7.9258277821        3.8473663361       10.7155016769
  H        -9.1777091382        4.8240787647       11.0834380795
  O        -9.7936769554       -1.9553183771       17.9765589618
  H        -9.3609204792       -1.1487954855       18.4190998092
  H       -10.0841632273       -1.5989822250       17.1374935173
  O        -1.0396464966       -3.3930156112       11.0166211766
  H        -0.3833432127       -2.9104695078       10.5053157167
  H        -1.8826311045       -2.9131098765       11.0812530726
  O        -0.9494442358        1.6879552086       11.6442274687
  H        -0.5383717508        2.1589468598       12.4321680695
  H        -0.5332485946        2.1733723735       10.8662203552
  O         9.2192804629        0.1015738864       15.0172539548
  H         8.6793258162        0.5799878781       14.3745137885
  H         9.9329471658       -0.3447209496       14.5205500362
  O         4.9751268686       -3.7947538703        6.0921562883
  H         5.7011228051       -4.4129428309        5.6726681099
  H         4.4648552518       -3.6460927934        5.2957708895
  O         2.0409857175        1.5994787033       17.1100060580
  H         2.4638101509        1.1263048819       17.8967786987
  H         1.6365735647        2.3580948940       17.5792590324
  O         0.4430398240       -0.6669550537       12.4587866640
  H         0.0431405561        0.1802558947       12.0975009749
  H         1.0238063102       -0.4651779742       13.2840330484
  O        -0.8785452071       -5.6816095735       16.8964274999
  H        -1.2033631186       -4.9355595558       17.4456167613
  H        -1.4280258052       -6.4847921169       17.0884303447
  O         6.1706406813        3.3890570264        3.9000273222
  H         7.1105993819        3.1665718934        4.0270149444
  H         6.0887051463        4.2762176044        3.5629928636
  O        -1.7771873183        2.1782504030       16.3184931598
  H        -2.3277773920        1.5010316517       15.8389988841
  H        -1.0695502196        1.6314722295       16.7766917614
  O         6.2955004037        0.6491322967       19.5604917773
  H         7.0627996199        1.0907512618       19.2432579811
  H         6.5954668879       -0.2662272689       19.7890501373
  O        -2.1400176387       -7.3516258288        7.5163971760
  H        -2.0057421680       -6.5859949010        8.2083843038
  H        -1.5917783593       -8.1008193057        7.9571392699
  O        -5.1467975333        1.6362398392       13.8846673473
  H        -4.6575487063        2.4702309821       14.1682544889
  H        -5.6132879061        1.9366835087       13.0863864847
  O         6.9333186254       -5.8734780774        5.2321598387
  H         6.4866152563       -6.6401619223        5.6277588813
  H         6.8341020545       -6.0372173934        4.2027407257
  O         3.6392465983      -12.2174976733       19.0739283614
  H         3.2961540078      -12.0863693607       20.0089922133
  H         4.5734315988      -11.9478256131       19.1143660401
  O         2.6077132219       -3.1543022566       10.1795085463
  H         1.9303706251       -2.4295482639       10.0398667348
  H         3.5587853253       -2.7597282624       10.0316578178
  O        -3.8195673234       -6.8688525913       11.6280233486
  H        -2.9101840208       -6.5700716818       12.0210550703
  H        -4.1499765761       -6.1489960373       10.9892111354
  O        -4.0392427418       -9.7430750713       19.1266967629
  H        -4.0018033733       -9.1926040293       19.9980142132
  H        -3.7494068679       -9.1178710694       18.4039126299
  O        -3.6343868098       -3.3993227096       14.5287540865
  H        -4.5514728239       -3.4093421523       14.8511210374
  H        -3.1307521473       -2.7662039616       15.1120994600
  O        -5.8974791680       -1.9274559879       20.1239805334
  H        -6.2741112923       -2.3943953670       19.3412754067
  H        -5.0067430699       -2.3336830063       20.2190341965
  O         2.0583608144       -9.2963897765        8.3602563505
  H         2.7280780712       -8.8566461216        8.9226025321
  H         2.1899894943      -10.2783152545        8.4827888607
  O        -3.4828981347        0.3189051391       11.4281141826
  H        -4.2301586769        0.8875510592       11.6235272446
  H        -2.7459513308        0.8679493920       11.8959335804
  O         8.1763118381       -4.7534685615        9.9383365095
  H         7.2129571577       -4.8209454749        9.7354157022
  H         8.3672340982       -3.9532053147       10.5318004417
  O         7.0880671422        3.8144058751        8.9695763717
  H         6.3634491908        3.9760058879        8.3172515528
  H         7.5574388936        4.6358688941        9.0434092445
  O         3.8411386356       -4.6468233931       15.4943502854
  H         3.0159149408       -5.0399809552       15.9320955119
  H         3.5222142040       -4.2667331869       14.6015456762
  O         5.1057392872       -2.2083911281       10.1289562670
  H         5.4778522507       -2.2635538466        9.1510379257
  H         5.5939323390       -2.7432876197       10.8424078202
  O         0.6634750533       -3.0759024338       19.2398837907
  H         1.3937453374       -2.7280091738       18.6402009025
  H         0.9444819493       -3.7455526935       19.8573363831
  O         6.2439624527       -7.4245960707       12.8059526717
  H         7.1385953431       -7.2262748248       12.4015544548
  H         5.8525586485       -8.1915491845       12.3973431594
  O        -6.2025480375       -2.8450097401        2.9994896181
  H        -6.8169133258       -3.4799473824        3.4360134712
  H        -5.8483918230       -2.2935280811        3.7462641446
  O         3.6838420525        6.6279059248       19.9254985791
  H         3.8090986846        7.3899485280       19.2812662378
  H         2.9055077486        6.8115934524       20.5456835475
  O         2.4155109349        0.5483029248       21.6054763747
  H         1.5831407118        0.0021341181       21.5527218394
  H         2.8767272913        0.4695038718       22.4735921139
  O        -0.5587880357        5.0629424531       11.8229377569
  H         0.1926650238        5.6444837590       11.8606301234
  H        -0.5313491777        4.5871339511       12.6605345170
  O         6.0813184088        2.4510270067       11.4116524463
  H         5.4335625237        1.7531797743       11.2247083124
  H         6.4803548083        2.6989649647       10.5405514091
  O        11.9045621717        3.4463034103        9.5100172644
  H        12.0285272921        4.1874760035       10.2215065183
  H        12.7873205375        3.3378465235        8.9786953610
  O         4.4540063347        0.2134123139       11.1859890421
  H         4.8981992601       -0.5263695442       10.6723046542
  H         4.5710980957       -0.0931395986       12.0834126920
  O         7.6528635381       -1.2653385820       17.2858112168
  H         7.1427775597       -0.8475053887       17.9824013468
  H         7.9571433138       -0.5552935698       16.7222476853
  O        -0.4166373994        3.5184638526       13.9732794893
  H         0.4655485536        3.7628606178       14.3046230814
  H        -0.9279053235        3.1328238921       14.7456058088
  O        -7.9223044039       -0.5120931922       13.9158019953
  H        -7.1111907600       -0.8529155264       14.3058130750
  H        -8.0240655007        0.4051592685       14.3607519942
  O         9.0065352519       -2.9720910000        7.8872155668
  H         8.8623274916       -3.8640761161        8.3658609460
  H         9.2756808290       -2.3957156482        8.6197511314
  O        -0.1864189994       -2.8463372342       13.7120233014
  H        -0.1940721282       -2.0043080631       13.1255652642
  H        -0.4275881896       -3.5046527633       13.0489733785
  O        -3.3429303121       -2.4895368678       11.6695491270
  H        -3.6011413575       -1.5055492098       11.6144037320
  H        -3.3203250986       -2.7382186763       12.6209839551
  O         1.0915014291        4.3669947327       18.5287686371
  H         1.5999957402        3.9243265215       19.2130032377
  H         0.2086358077        4.6819005784       18.8788339746
  O         2.2633199743        5.8874458536       12.2825570886
  H         2.5152956245        6.7729479810       12.5786032662
  H         2.3669284517        5.3224889791       13.0709642075
  O        -1.8775582090       -3.3144454266       18.1906248242
  H        -1.0350684025       -3.1150987236       18.7080089812
  H        -2.6565989626       -3.1147756266       18.7987065546
  O        -1.5596903471       -2.0213750184       15.8635412461
  H        -1.0296638204       -2.6472665472       15.3487587090
  H        -1.7630243392       -2.5475651267       16.7412810970
  O        -6.6624670613       -6.4994514777       15.2755944211
  H        -7.4253589803       -5.8681463497       15.2805297257
  H        -6.4992073815       -6.8052705972       14.3462731695
  O         3.9983411769        1.8803755832       15.1450527085
  H         3.3671560921        1.8756091816       15.9848620035
  H         4.9565170734        2.0951257787       15.4000524644
  O         2.1503660751       -1.1193590743       15.2384445526
  H         3.0124016457       -1.0893443633       14.7256677912
  H         1.6022298522       -1.8278491758       14.8089759984
  O         8.7517664860       -8.6295245464        2.3602322939
  H         8.7797401753       -7.5931003185        2.3118690291
  H         9.4558303927       -8.7705459174        3.0240618893
  O        -2.4722141028       -5.8627627290        1.6956508228
  H        -2.9020486890       -5.0088317590        1.7173876180
  H        -1.8663552181       -6.0007989594        2.4966872306
  O        -1.2933989609       -5.7004885214        9.6036442089
  H        -1.3039536629       -6.2544445477       10.4204870515
  H        -1.5449926130       -4.7952182372        9.9720956777
  N         5.7648522778       -3.7012205042       12.4641658284
  H         6.3541275825       -3.3508330348       13.2124020865
  H         4.7887825233       -3.8866479918       12.8217827348
  H         6.1622821978       -4.6252773676       12.2081344887
