     193
 CELL 12.4294 12.4294 12.4294 90.0 90.0 90.0 i =    97720, time =    48860.000, E =     -1096.5589809691
  O         8.1026768968       -0.5067842497       50.3616146353
  H         7.3982868925       -0.6481253867       49.6522825604
  H         7.6748749258       -0.0977669180       51.1764808185
  O        10.6175305081       -7.5965204159       45.6749777563
  H        10.4917360494       -8.3820040188       46.3213617667
  H        10.6625382873       -6.7215897855       46.2078401451
  O        11.0159500225       -2.0182493505       50.6961177302
  H        11.0973486148       -2.2399527482       49.7358373765
  H        11.8556462186       -2.3434870721       51.1476415702
  O         8.3083734205        1.6035064097       47.6062801470
  H         7.6324356761        0.9108371717       47.6149427290
  H         8.0571657283        2.3033813496       48.2494044950
  O        -1.6606909266       -5.2344683080       46.9945535374
  H        -1.1182177228       -4.4088478608       46.9757037845
  H        -2.2050337867       -5.1808442424       47.8764772454
  O        18.1515047859       -1.4581055136       56.7506037514
  H        18.0655680610       -0.5503813349       56.3588093175
  H        17.8403495164       -2.1994552278       56.1671931817
  O         7.4511180469        0.3216280368       40.8761068367
  H         8.4797302958        0.2262270841       40.9629963707
  H         7.0796004737       -0.6359186827       40.9170576645
  O        14.5338756046        4.7116345921       50.5161862432
  H        14.3259645912        5.6014322363       50.9606029289
  H        14.6547959866        4.8883908911       49.5742229485
  O         6.4083900330       -7.0155353168       38.3935504724
  H         6.1442286468       -6.1943355479       37.8699960809
  H         5.5963308313       -7.3650648979       38.8424333897
  O        13.2133288794       -2.6297449103       40.0963553100
  H        13.5569519657       -1.8103267303       40.4391795592
  H        12.5431475207       -2.9365612741       40.7865404774
  O        10.9876069931       -3.2158570375       41.6603085930
  H        10.0009065966       -3.4179561125       41.3764942323
  H        11.0076246052       -3.5167525106       42.5554898524
  O         4.3003744996        5.6360940249       44.2008420019
  H         5.1213504484        5.9859722037       43.7398854414
  H         3.6395650923        5.3139603198       43.5343033679
  O         1.5380746374        0.1031795712       53.9970874527
  H         2.4446745962        0.4325877113       54.1352604063
  H         1.3973501407       -0.5043302028       54.7968072185
  O         8.3137029651       -2.2779262747       43.2449479434
  H         8.1854379494       -2.5210333067       42.2930648088
  H         7.4512192453       -1.9149768134       43.5990564923
  O         8.6743353461        4.7241001689       43.7980481120
  H         9.4480552307        4.8550390241       44.3763834710
  H         9.1310296910        4.2803673326       43.0441030413
  O        18.8191277185       -0.5156306798       48.1654841134
  H        17.8677713745       -0.1842812462       48.4593811312
  H        18.5990186294       -1.1391938235       47.4327085272
  O        17.8772401353       -3.4045552207       42.3818728318
  H        16.9900084188       -3.7044085099       42.0818062678
  H        18.3205797567       -4.2277388313       42.7225078164
  O         9.6590919952        4.8644922857       50.4187501544
  H        10.2004479800        4.5607839926       49.6483683581
  H         9.2445081567        4.0132967444       50.6576512596
  O         7.1381359279        2.7475518258       45.1718808253
  H         7.6792745760        3.4684695479       44.6976271573
  H         7.8002504470        2.2942474451       45.7692795458
  O        11.5924561585       -6.0916458313       52.2282235285
  H        11.0153775015       -5.4369420983       52.8057019183
  H        10.9701296768       -6.3582462517       51.4943680086
  O        13.9405670464        4.6958601921       35.4418820581
  H        14.5084242306        3.9458089563       35.1772147361
  H        14.1292486137        5.3940746573       34.7973483820
  O         7.2488266680        6.6103782278       46.8374903905
  H         7.5926065872        7.0117928991       45.9897972379
  H         6.7975790437        5.7719481814       46.5661487806
  O        14.5302097280        0.1932290094       50.1827567982
  H        13.9933926334        0.8733070655       50.7411560710
  H        14.8784520557       -0.5304249321       50.8214185220
  O         6.9708785591       -8.7197942012       36.2693203803
  H         6.4333701464       -8.4077461410       35.5089047891
  H         6.9237311446       -8.0452168812       36.9850723365
  O         3.3057550841        2.9047514991       47.3419929534
  H         3.9988504417        3.4166748563       46.8849926378
  H         3.7718524066        2.3513161276       48.1022995942
  O        14.0074323143       -3.1427116866       34.8501752953
  H        14.1737506809       -3.1824195906       35.8176639373
  H        14.6272722177       -2.4616728906       34.5007999833
  O        12.1904204032      -10.4725373295       53.5146322367
  H        12.1920672416      -10.3492708676       52.5128094944
  H        12.9576745673      -11.1121430247       53.6380184248
  O        15.6142208576       -3.8102969736       41.3140501420
  H        15.1449694170       -4.4197030170       40.7203591843
  H        14.9583326214       -3.2568878122       41.7106346945
  O         8.5492386113       -4.6913319085       44.8043792196
  H         9.4456670076       -4.6624870052       45.2309827087
  H         8.4765799785       -3.8135357472       44.3205132417
  O         4.5836885269      -11.3516191187       49.0211738200
  H         3.7274089824      -11.5470661041       49.4584677153
  H         5.1702735558      -11.0018986718       49.7983136194
  O         3.0070613342       -1.0566419344       46.0433511467
  H         2.6189024166       -0.1709902805       45.8156532537
  H         3.9081834855       -0.9207503049       45.5703325948
  O         3.6388972878       -1.7351762102       51.7293786459
  H         4.5765215336       -1.6748479621       51.9224440572
  H         3.4101623136       -2.4577598373       52.3961825609
  O        12.5868779692       -7.1465845771       42.3054733627
  H        12.0486653355       -7.0871384875       41.4724717366
  H        12.5348696202       -8.0429375786       42.6989399853
  O         5.9184014287        1.8497545870       38.9269151596
  H         6.1454926773        1.2111804725       39.6781652692
  H         5.3725447011        2.6093504199       39.2658417896
  O        18.2867759906        0.9937838112       43.3004856904
  H        18.8144152211        0.8735436496       42.4908751530
  H        18.8523835672        1.6822695157       43.8265001280
  O        16.7735778764        3.9522645853       39.4813893922
  H        16.0420410727        4.0522267515       38.8457513699
  H        16.4739530342        4.1195250418       40.3932089373
  O        12.4300090396       -4.8500641982       44.0691202972
  H        12.8785174659       -5.0582498926       44.9251838687
  H        12.4966237595       -5.6448230671       43.4780711005
  O        13.8819567767       -1.9918667912       43.2941633759
  H        14.5104537711       -1.6733548725       43.9893226505
  H        13.0427213466       -2.1527116304       43.8620503603
  O        14.3639676976       -5.3114980501       51.7705095369
  H        14.4042140254       -4.5260546453       51.1972534400
  H        13.4043360491       -5.5166566059       51.8978082233
  O        19.1623520708       -5.7978003652       42.9689614965
  H        19.8946665569       -5.6904233385       43.5697274627
  H        19.6132874225       -6.1793601331       42.1512422562
  O        -1.6995605902        0.2437244504       34.5118399889
  H        -2.3641807802        0.8012006288       34.9766315588
  H        -0.8736793672        0.7268481173       34.7693471468
  O        12.9651690227        2.1110163254       50.8895517769
  H        13.2323272724        2.9830349234       50.6135994404
  H        12.2669863804        1.8203994413       50.2865045414
  O        10.4392102149        1.5243544789       56.5855350526
  H        10.2257810853        1.1020818627       57.5217318864
  H        10.1238459181        0.9195479228       55.8633137098
  O        10.2078051229        3.7691564627       41.2938931759
  H         9.8458884241        3.1348847551       40.6507801605
  H        10.9663497002        3.2951221085       41.6366747046
  O        15.3240445565        4.7857184070       41.9145092925
  H        15.2839869669        3.9202029419       42.3814566837
  H        14.3896483289        5.0514241232       42.1415720890
  O        22.7866614242       -0.0485786682       41.6097433505
  H        23.5926761061        0.4262240322       41.2978462228
  H        22.9790900571       -1.0386675035       41.5946265574
  O        14.7182842293        1.4866817225       45.0974107516
  H        13.8818842315        2.0175773417       44.7539993449
  H        15.2019846689        2.1238025919       45.7171553814
  O        15.2262538924       -3.5706502945       49.8088451878
  H        16.0605561862       -3.9523510241       49.4459770202
  H        15.5801592183       -2.8016751121       50.3436509603
  O         5.3653937693        4.4847495569       46.2851649533
  H         5.9507230009        3.7685684519       45.8342275626
  H         4.9076675202        4.8844411396       45.4794856630
  O         0.6841510300        1.1765351664       48.0013323029
  H         1.1462636883        1.0634271339       47.1854665803
  H         1.1933739122        0.6926838977       48.7313169154
  O        18.4971629915       -1.9001567272       40.3204372715
  H        18.3882130824       -2.5726306554       41.0921726971
  H        18.8838472297       -2.4297540127       39.5605452112
  O        11.4126519100       -2.3742427772       47.7840105824
  H        10.9516163808       -1.5083521730       47.5714077029
  H        12.3418058478       -2.2898116218       47.4452800455
  O         3.4899597281        2.1407465060       42.5231536563
  H         2.9940945372        1.9439089440       43.3776248888
  H         4.3463479387        1.7380960835       42.7401471796
  O         8.8743433435        2.6165203558       51.6213882128
  H         9.3878341214        1.7956841054       51.3135418125
  H         7.9521535583        2.2794594451       51.6610056328
  O        12.5850315347        3.1875868030       44.3659542537
  H        11.8133746871        2.5605890427       44.2186212657
  H        12.1888650368        3.9168644085       44.9149405514
  O         8.4109150689       -3.8321954066       53.2608103823
  H         8.3811247544       -3.8386258202       52.2973078451
  H         8.2496233651       -4.7979249133       53.5653159893
  O         5.4788215046       -4.2917906226       49.0603964764
  H         5.9957685206       -3.7455389888       49.6933414208
  H         6.0595995039       -4.4771933139       48.2435861407
  O         2.1335013219       -5.8084495101       45.9144780200
  H         2.1938593770       -4.9883413954       46.4478931025
  H         2.9760439940       -5.9287822857       45.3975055504
  O        11.2721261868        3.7846841945       48.3369544590
  H        11.4200765088        2.9502891575       48.7735368903
  H        12.1958495208        4.1345046582       48.1994714273
  O        10.6630054106        0.7856690889       50.5119837960
  H        11.0533412829       -0.0676296517       50.7358903425
  H         9.8410845320        0.4818137572       50.0173655425
  O        21.2866093283       -5.4681731112       36.6475920860
  H        20.6994967012       -5.6053758704       35.9338408346
  H        21.4284723071       -6.2700344031       37.1999721079
  O         7.8247649227       -3.2941851298       38.2845920241
  H         8.1223678445       -3.9412341225       37.6035451862
  H         8.3661850808       -2.4081396087       38.1303069168
  O         8.1716995789       -6.7575885691       40.8129352546
  H         8.9496837444       -7.3331718102       41.1130585267
  H         8.0129054944       -6.7605452836       39.8488707895
  N        11.4658002943       -1.9223212285       44.5541565822
  H        11.4529175749       -2.5841365247       45.3564910381
  H        11.4052079135       -0.9321408493       44.8447781907
  H        10.5607048814       -2.0612704949       44.0829281524
