     193
 CELL 12.4294 12.4294 12.4294 90.0 90.0 90.0 i =    62520, time =    31260.000, E =     -1096.5158446450
  O         1.9228080328       -1.8820529520       29.8408710040
  H         2.7924033842       -1.3936065721       29.8722946269
  H         1.2994322172       -1.0973683279       29.7999096332
  O         4.2531063760      -10.1768741536       26.3886778846
  H         5.0919724380      -10.6250683224       26.4377543952
  H         4.3287271495       -9.4459630514       27.0443789666
  O         7.1318326847       -7.0345099291       27.7691998926
  H         7.5466228165       -7.0922323150       28.6785225848
  H         6.1870626988       -7.2324598134       27.9041062456
  O         4.7098938748       -0.5403006919       29.7517417790
  H         4.6351116671        0.1573543892       30.4889551972
  H         5.1453829757       -1.2809526034       30.1441887700
  O        -6.6765154352       -5.5265608070       24.5094341423
  H        -7.1704425355       -4.9798159511       25.1354540353
  H        -6.8996564798       -5.1353000838       23.5954594282
  O         9.4776124748       -6.3918436493       33.4264331111
  H         9.3123262786       -5.7526041466       32.6789111218
  H         8.8241556681       -6.0706516220       34.1376018373
  O         1.5636301332       -2.8955392419       20.0163735403
  H         0.9100446902       -2.2627641560       20.3869444999
  H         1.6902457791       -2.5400374737       19.0839057480
  O        10.3166298956        4.0585227348       30.4419002519
  H         9.4662850539        4.5357831651       30.5364860494
  H        10.2831234122        3.7783289575       29.4718068584
  O        -0.0880244281       -6.5103954636       17.9835915591
  H         0.1184412365       -6.3917647408       18.9169648553
  H        -0.4455160985       -7.3704766872       17.8947637673
  O         4.2267370897       -2.7860429690       20.3540263471
  H         3.2738182596       -2.6367782309       20.5264231664
  H         4.2247462527       -3.5042229511       19.6568265677
  O         5.8657615286       -6.2532416816       19.9675015175
  H         6.1048097720       -5.5680955693       20.6758030180
  H         4.9784053750       -6.6687578418       20.2990963354
  O        -2.1327089727        6.0784417675       23.9541507274
  H        -1.6484809442        5.2560293702       23.6154507166
  H        -2.9621483153        5.8256746600       24.4312329657
  O        -5.8880652280       -1.9716337374       31.4887580139
  H        -5.5070388953       -1.4964421569       32.2792095609
  H        -6.6737756705       -2.3760531443       31.9655520073
  O         2.3070860273       -4.2730277391       24.5140127778
  H         3.0124877325       -3.7968609342       24.8629227735
  H         1.5954447214       -3.5882036535       24.6100424195
  O         2.7955562040       -0.1307371371       23.0458879872
  H         2.4652896520        0.7156482984       23.4873891130
  H         3.7504223097        0.0283619493       22.7307011881
  O        15.3660813763        0.5717835410       28.2006943289
  H        15.7710905309        1.0787507243       27.4290768788
  H        15.8785111740       -0.2843695839       28.1683061650
  O         8.5190640835       -4.4879542941       18.6910798776
  H         8.8190512224       -4.8866103539       17.7963882148
  H         7.9204908399       -3.7474371725       18.4446493307
  O         6.3851604212        2.5864309827       30.1431451488
  H         6.8345567589        1.7540191402       29.9402235045
  H         5.5798536913        2.2998904670       30.7151143431
  O         3.2416718071       -1.6177204935       25.8171101853
  H         3.1129736231       -0.8887642835       25.0906510868
  H         2.3524725330       -1.8144755789       26.0856337130
  O         4.7853217520       -8.2669523787       28.4457513549
  H         3.9803227914       -8.0301565565       28.9610580376
  H         5.1804528779       -8.9915062508       28.9829679620
  O        10.9267146285        3.6232411195       15.4121250838
  H        10.6306795717        2.9115326456       14.7231216757
  H        11.1460589441        4.4073674762       14.9111345023
  O         1.2239673277        3.1825060970       28.4023173385
  H         0.3005077193        3.4175607582       28.4084103282
  H         1.5058207079        3.4869298244       29.3390679933
  O        10.6810724868       -0.8864588539       31.0362667177
  H        11.5501606580       -0.5884303346       31.3988003558
  H        10.3800672288       -1.5569269983       31.7227712939
  O         1.9767286970       -9.1207734774       18.7551133610
  H         2.2819171440       -8.4752150390       19.4182705209
  H         1.0183980897       -9.4083264682       18.9936962104
  O         0.2538125410       -0.0674883939       26.2351912077
  H         0.6356537618        0.7383805120       25.8601329092
  H         0.9062105433       -0.1799090108       26.9875152617
  O        10.2283070030       -5.0411123632       16.6069298153
  H        10.8935978786       -5.4987662227       17.1591242923
  H        10.6799081946       -4.2952147704       16.1953752733
  O         8.8881842588      -11.1899073633       31.8875411569
  H         8.3440261232      -11.6350385462       31.1422813641
  H         9.7449377179      -11.6204685306       31.8477113153
  O         6.1699325964       -4.3723992360       21.9354036889
  H         5.6797101228       -3.6477920272       21.4983218834
  H         7.0329596248       -3.9123060506       22.1658677887
  O         2.0484553059       -7.0003891187       23.3440486170
  H         2.8253379950       -7.3963125031       23.8153020639
  H         1.9406680161       -6.1019051741       23.7230634008
  O         0.4589886497      -11.9913574806       29.8454499014
  H         0.1753121810      -11.2367562867       30.4479937029
  H         1.1236035202      -11.4486460236       29.3057432784
  O        -1.3299815069       -3.1853808299       27.2791580679
  H        -1.5910502944       -2.4541410085       27.8665401083
  H        -0.3185822452       -3.1286539699       27.2115492735
  O        -2.2432498734       -3.0421662825       32.5900972054
  H        -2.6704215811       -3.6303985233       31.9675121576
  H        -1.6697094644       -3.5508930226       33.2007879954
  O         8.2482029764       -9.0769319152       20.8453464601
  H         8.7004005507       -8.2629870801       20.5801757767
  H         8.3559132458       -9.7402006219       20.1009123815
  O         0.5461416323       -0.3680962256       21.0818894288
  H        -0.1024491126       -0.1520189375       21.7879759238
  H         1.4519965669       -0.3504603648       21.4958952704
  O        11.4831520182       -4.1776944875       22.5141663710
  H        10.9175960321       -4.9146496622       22.8217218698
  H        12.0282150213       -3.8907119929       23.2211451220
  O        11.9190031684        2.2778160670       19.0205375886
  H        11.1000002210        2.7974584335       18.6307147298
  H        11.6657827365        2.1308048855       19.9609763232
  O         7.9845021107       -7.2180947519       25.1369721196
  H         7.7914618444       -6.9685005278       26.1090520396
  H         7.2907758002       -6.6567153366       24.7185418213
  O         8.2979603838       -2.9601973000       22.8081520652
  H         9.1661580013       -3.1419439871       22.3986062410
  H         8.4425096185       -3.2957687686       23.7882080061
  O         4.4857670412       -4.5345533553       30.9784997590
  H         5.0862513685       -4.1288300056       30.2903306428
  H         5.1398615666       -5.1648480159       31.3717513234
  O        12.2442439582       -8.6638527038       23.7423590267
  H        12.9375315813       -8.0143279216       23.4169872803
  H        11.7729306432       -9.0566951716       22.9573698858
  O        -4.7356218093        0.0130904946       16.8235961979
  H        -5.1239985168       -0.8698004130       17.0567372151
  H        -3.9237848427       -0.1979036588       16.2971224001
  O         7.8507090060        4.8284010579       30.6005958663
  H         7.4168419891        5.6083050463       31.0805007034
  H         7.2158136270        4.0487510974       30.6220974396
  O         7.5774176050       -0.4990626450       33.7197567355
  H         8.1048265790       -1.1052969288       34.3624910829
  H         8.1905792237        0.2124770517       33.4062576106
  O         5.4483043664        2.9817866206       21.9064398760
  H         6.2867083977        3.3578444923       21.6390785590
  H         5.1902246784        3.5037781985       22.7641658682
  O        10.6081686501        2.5192012662       21.7629368335
  H        10.4589005771        1.7157726518       22.2646056204
  H         9.6003207060        2.8438016329       21.5509656882
  O        17.8670603828        0.3693440256       22.9574390738
  H        18.0375672625        1.2996702834       22.6250915743
  H        18.4506061912       -0.2044763824       22.3597456654
  O        10.2605286412        0.0984729651       23.5559553053
  H        10.1421011637       -0.8413565133       23.6801189041
  H        10.0619641534        0.3884704177       24.4706292490
  O        10.3820785453       -0.9570099786       28.4393789548
  H        10.4014584707       -1.2419314428       29.3950846717
  H        11.0217551018       -0.1950552731       28.4098407260
  O         1.8308025908        1.8750159783       24.7434152179
  H         2.5896893042        2.2359577947       25.2895735142
  H         1.2252381491        2.6267614588       24.5688668144
  O        -2.0671663537        1.4607976593       26.1699633876
  H        -1.3733506614        0.8610576086       26.4652255910
  H        -2.8726512799        1.2649815384       26.6795006191
  O        13.1549949013       -5.6445403987       20.5032032970
  H        12.5790932389       -5.3749394923       21.2479350996
  H        13.4520058518       -4.7800066508       20.1733802298
  O         4.8192902864       -3.5180986279       26.6421240799
  H         4.3488241058       -2.6405360747       26.4489936258
  H         4.1677330889       -4.1737070556       27.0492032838
  O         0.4630866225       -2.0660907484       24.0666193907
  H         1.1990805494       -1.5699122172       23.5633514838
  H         0.3922435911       -1.5098274649       24.8692978147
  O         4.1893849171        1.8477131062       31.8377228058
  H         4.5416087199        2.0422191927       32.7709667429
  H         3.2961260184        2.2913838239       31.6013367611
  O         4.7239858720        4.3329231100       24.2723525602
  H         4.8461305457        5.2344452793       24.6873453028
  H         4.7514170924        3.6882607639       25.0239146565
  O         2.9771064605       -6.3357093785       29.9102411469
  H         3.5585285770       -5.5159091177       30.2105617684
  H         2.0845420703       -6.2369475880       30.3729566493
  O         1.3596825074       -3.1232591792       27.3680025326
  H         1.8455832497       -3.9522397322       27.1854973716
  H         1.5861185992       -2.7895255402       28.2581685604
  O        -0.7888751380       -6.2931970914       26.4339729917
  H        -1.1069122220       -5.5717919543       27.0374689853
  H        -1.3578275202       -6.3271424713       25.5665010417
  O         7.0760841536        2.3194673710       26.6897588755
  H         7.3568885421        2.8598293710       27.4722206403
  H         7.3300186303        2.9680424158       26.0129866914
  O         6.4644693541       -3.6857386078       28.9441063326
  H         5.8907665301       -3.4226200722       28.1775410283
  H         6.9859951278       -4.4143471669       28.4549014006
  O        14.2556475536       -7.6107787292       13.7824723832
  H        13.4012116148       -7.0922611335       13.5947829726
  H        14.0981003659       -8.0574710393       14.6322836533
  O         2.9210350013       -5.2644112142       14.8919620629
  H         2.7768145956       -5.6148264751       15.8411176039
  H         2.5596617237       -5.9815600544       14.3356668747
  O         3.1626044181       -7.3686554969       20.6980438269
  H         3.1466866054       -7.7775415162       21.5986846731
  H         2.4944218381       -6.6752099356       20.8813512925
  N         8.7336525273       -3.8912704081       25.2843443333
  H         8.6978148082       -4.9067027739       25.4896610897
  H         9.5597580146       -3.6354418653       25.8064083358
  H         7.9279668851       -3.4586011824       25.7592971259
