     193
 CELL 12.4294 12.4294 12.4294 90.0 90.0 90.0 i =    26120, time =    13060.000, E =     -1096.4772922895
  O        -4.2500045809        1.1231280391       10.9836623939
  H        -4.0660721181        0.6646288304       10.1422761470
  H        -5.0036845053        1.7715904171       10.7627901301
  O        -2.6272574339       -8.0535018649        5.4750430986
  H        -1.8470416018       -8.6690230796        5.3333628325
  H        -2.4856788738       -7.5729101223        6.3208839507
  O         0.4412047673       -6.3658034751        8.4955231244
  H         0.1618864979       -6.2195749436        9.4800683524
  H        -0.2604443872       -5.9151349977        7.9752426835
  O        -3.7225843346        0.0808013724        8.3597626705
  H        -2.8622026091        0.4604341315        7.9490887774
  H        -3.8893665508       -0.9071202914        7.8834635649
  O       -12.6493459982       -4.6625541079        6.1040250059
  H       -13.5306205903       -4.4389509930        5.7577315876
  H       -12.2239246194       -3.8245254981        5.9127723192
  O         2.3563520399       -5.7521070155       12.2655794588
  H         2.3232981236       -4.7145765514       12.1979341067
  H         2.1819278131       -5.9784900664       13.1732062119
  O        -4.7987022608       -0.8869938664        0.5309662611
  H        -5.1174228751       -0.7834554506        1.4864677811
  H        -4.8580780523       -0.0242932475        0.0491685774
  O         1.9131118930        2.0836316676       11.0772073837
  H         1.0747687416        2.4050306808       11.5151908171
  H         2.1267579336        2.7827655950       10.3923460504
  O        -4.6416414012       -7.7388615793       -2.8547642597
  H        -4.7428334861       -7.1586612686       -2.0672446452
  H        -5.3226130122       -7.4613749283       -3.5190383776
  O        -1.9913332419       -1.0325567943        0.0095437941
  H        -2.9400180331       -0.9623140529       -0.1200933862
  H        -1.6333627404       -1.7627531923       -0.5494425570
  O        -0.2682100033       -5.7236033978       -1.0940114893
  H         0.6339849892       -5.9583879574       -0.7082667417
  H        -0.8795258906       -5.6453749419       -0.3059789907
  O       -12.1066353090        5.4382558095        2.1898344728
  H       -11.3609940412        5.0592761689        2.7136899109
  H       -12.8425319477        5.2692900778        2.7915577057
  O       -11.2607787506       -2.7571247998        9.1635379413
  H       -11.0391965002       -1.8468332251        8.9652329886
  H       -10.6109330475       -3.2939507515        8.7218169624
  O        -3.0876617935       -3.0092444563        2.5204221646
  H        -3.0912811527       -2.1329999085        2.0882600869
  H        -4.0870640189       -3.0819012905        2.5012774022
  O        -2.4951356294        0.3587949728        3.8790467632
  H        -2.7699195946        1.2832452564        4.0305553805
  H        -1.8718850491        0.5443501789        3.1094722219
  O         5.9124570758       -0.8866859032        5.7156069794
  H         6.4271142714       -0.6908777803        4.9042247420
  H         6.5067160237       -1.2860313769        6.3353053359
  O         2.3896241909       -3.0362186807       -0.6513784478
  H         3.2076177750       -2.5811721113       -0.8155320222
  H         1.8517506709       -2.7293861758       -1.3885333558
  O        -0.1137572122        1.5632153339        7.7111926522
  H         0.7385933993        1.1506084071        8.0780822544
  H        -0.5171144326        1.9033852525        8.5251167243
  O        -0.9855353441       -0.5245242386        5.9888887427
  H        -1.5856374535       -0.0902243311        5.2556054316
  H        -0.6793413887        0.0787021481        6.7106080520
  O        -2.7182207211       -6.7523537356        7.8553412033
  H        -2.7862427076       -5.8880411083        8.2388886274
  H        -3.2068259084       -7.3570706886        8.4825251648
  O         2.1312273872        3.8388977598       -3.5081860058
  H         2.2988213827        3.2659559925       -4.2832692978
  H         1.3520280011        4.3891429164       -3.8440819606
  O        -5.5063806226        1.6968554659        6.8439421077
  H        -6.1567557660        1.0224057917        7.0559697374
  H        -4.6820607913        1.3879963778        7.3027893230
  O         4.9130691625        0.9221764859        8.6010877052
  H         5.1214796908        1.4893690497        9.3849651078
  H         4.6398281338        0.0913034811        9.0404063890
  O        -4.6651027728       -5.8045222360       -0.8781590286
  H        -5.3081299583       -5.7153857939       -0.1679894768
  H        -3.8310591157       -5.4405377306       -0.4705121555
  O        -7.1536884663        1.0915985805        2.7086552053
  H        -7.1555473740        0.9648922976        1.7131098892
  H        -7.3871782545        2.0235542115        2.8000109407
  O         5.5679812611       -6.7758839716       -3.9308017890
  H         5.0069455775       -6.9178197726       -3.1346357460
  H         5.0293337662       -7.2434744203       -4.5982151563
  O         1.8633917069      -12.5170177491        8.5769138533
  H         2.5246354930      -12.3279508768        9.2766126669
  H         2.4047607796      -12.8342129233        7.7986854392
  O         1.0186170869       -2.2203031171        4.9973348420
  H         0.4694439512       -1.4874439217        5.3041492232
  H         0.6772741861       -2.3598977443        4.1324720225
  O        -6.5064915900       -7.1320411036        4.1032523270
  H        -5.7902687016       -6.5730500740        4.6300806915
  H        -6.1098932907       -7.5284799721        3.3143280885
  O        -6.3505835327       -9.6382720517       10.4299038347
  H        -7.1143487420       -9.0625569158       10.6400919896
  H        -5.6716240600       -9.0173315955       10.0738801574
  O        -5.0748282544       -5.5192771244        5.9372486343
  H        -4.3503350013       -5.9916312790        6.4213715128
  H        -5.8280475037       -5.3668977545        6.5879334126
  O        -7.9767151246       -1.7253238549        9.6810612884
  H        -7.8983473820       -2.4663912512        9.0385316995
  H        -7.4243692190       -1.9918774962       10.4888599171
  O        -2.9191533160       -9.2513489929        0.9091542289
  H        -2.3614933211       -8.9963811345        0.1013315317
  H        -2.4030479034      -10.0890556991        1.1511083757
  O        -5.0839121233       -0.4878027205        3.2493050631
  H        -5.5208979149        0.4125990062        3.0187864972
  H        -4.1893296531       -0.2153511632        3.4565584494
  O         5.5943449857       -5.0734897176        1.0303116194
  H         4.6557039361       -5.4493366458        1.1184621291
  H         5.8880423334       -4.7221168871        1.9151503295
  O         3.9520392287        4.8866488087       -1.9151712411
  H         3.3210567486        4.5763812148       -2.6102938013
  H         3.6409984465        5.7305570937       -1.5091163963
  O         2.9745358366       -4.9683814572        7.5954674876
  H         2.5821823921       -4.8642746378        6.6655575230
  H         2.4834324343       -5.7493513444        7.9289337065
  O         0.8940232160       -2.3928826479        2.1373947752
  H         0.4645355987       -2.5154366423        1.2494524541
  H         1.8432038705       -2.0299944274        2.0413081198
  O        -1.0348728954       -3.1222475368       10.7690247153
  H        -0.3830293534       -2.7936716828       10.0726938780
  H        -0.5101012058       -3.9113124438       11.1175626793
  O         3.5268725193       -6.7611888184        3.0670890494
  H         4.3850721413       -6.8625033344        3.5289457035
  H         3.3423812603       -7.5005376343        2.3721637620
  O        -6.7842513616       -4.0799723523       -4.3929537283
  H        -7.6450530723       -4.1479871444       -4.8096113326
  H        -6.8449699338       -4.8355545037       -3.8102800990
  O        -0.4272651916        3.7382133338       12.2879108562
  H        -0.7500294857        4.5145144244       11.7192957040
  H        -0.2572057609        4.1583966729       13.1426749518
  O        -1.1141058461        1.0765565702       14.1176487880
  H        -1.2220401268        0.3966339696       13.3710974593
  H        -0.1408842165        1.3334874874       14.2087849880
  O        -5.6163528028        3.4969488253        2.1082761214
  H        -4.8804967483        3.6875995167        1.4266828376
  H        -5.0983771845        3.2114213486        2.9162981527
  O         2.7101405233        3.4469678606        1.3577097367
  H         2.5117357772        2.4718104760        1.5893469024
  H         2.5672201851        3.6010010712        0.3704682719
  O         4.5736247609        1.4301390393        0.0303385305
  H         3.8735927269        1.1637307650       -0.6121237718
  H         4.1897371794        2.2419808546        0.3617958064
  O         1.5762733575        1.0191681921        2.1675173965
  H         1.7149109056        0.0125517191        2.0130878180
  H         1.5243486606        1.0619616932        3.2396107297
  O         3.2163354170       -1.3018641488        6.5924588856
  H         2.7042786642       -1.4432638160        5.7219110224
  H         4.1151667903       -1.2535324526        6.2374938679
  O        -4.3371017973        2.6055650046        4.4539915959
  H        -3.9292769669        3.3595145814        5.0413374090
  H        -4.8859816939        2.1103482381        5.1400071693
  O       -11.1033074324        1.4819257039        4.7079937483
  H       -10.4429171933        1.6030781064        5.4068473872
  H       -11.7474030866        2.1848135620        4.7789489385
  O         5.6652320106       -2.5038590463       -0.4369561591
  H         5.7277756305       -3.4092179706       -0.0584673701
  H         6.5464940532       -2.1069389863       -0.1620221227
  O        -2.3023130020       -3.0659121046        5.2870427786
  H        -1.8173554229       -2.2672577814        5.3787041421
  H        -2.6235252933       -2.9597743950        4.3651565456
  O        -5.8341190103       -3.9536405564        3.2740762873
  H        -6.2545641315       -3.1907650487        3.7086906485
  H        -5.4604755185       -4.4957905893        4.0053729434
  O        -1.7171389865        1.8703641659       10.2393153331
  H        -1.1674221679        1.9176154693       11.0470758026
  H        -2.6915160890        1.7248528592       10.5012516269
  O        -2.7374253412        5.4472820366        2.8013666176
  H        -2.6072698793        5.1099985447        3.7354490836
  H        -2.7926363825        4.6224679423        2.1528649201
  O        -3.5725734068       -4.1581011567        9.0383609692
  H        -2.6902780681       -4.0447885361        9.4182213458
  H        -4.1131141518       -4.6840652706        9.6797218414
  O        -4.2763225969       -2.1882450191        7.2714229175
  H        -3.6022224733       -2.2789470861        6.5157353100
  H        -4.2691190906       -3.0686687888        7.7346026928
  O       -10.9875213441       -6.8581216903        5.1139557490
  H       -11.5257432426       -6.0215939216        5.2482498951
  H       -10.2658509846       -6.6214185072        4.4986468201
  O        -0.1852467792        3.6015617297        5.3848379737
  H         0.0204839644        3.0991572612        6.2502787829
  H         0.4947233348        4.3191776062        5.1678789859
  O         3.5669170496       -3.9467597516        4.2977077470
  H         2.6928155193       -3.5506288876        4.4512218779
  H         3.5441826284       -4.8605612909        3.9745137996
  O         3.0347990553      -10.1615961827       -5.6645948704
  H         3.8387525113       -9.6370155667       -5.9818215916
  H         3.3957585468      -10.7569133561       -4.9913807631
  O        -7.4828474047       -8.5143458961       -6.1117059463
  H        -7.2215405575       -8.1011583588       -7.0197525154
  H        -6.6949564353       -9.1040743971       -5.9379753298
  O        -2.3937525703       -5.0553800206        0.6524678339
  H        -2.4369403073       -5.5982231918        1.4923295241
  H        -2.6432167734       -4.1236228284        0.9412418219
  N         3.6084104715       -1.4974848552        2.3463820341
  H         3.8016006122       -0.6499015773        2.8314561474
  H         3.9053906456       -2.2231043300        2.9501570035
  H         4.2279528439       -1.5564088790        1.5296984592
