     193
 CELL 12.4294 12.4294 12.4294 90.0 90.0 90.0 i =   101320, time =    50660.000, E =     -1096.5032646814
  O         6.5805482912       -1.7559119104       51.6517868164
  H         5.8901094061       -1.0936291195       51.4113985357
  H         6.6435852628       -1.7384594851       52.6155952241
  O        11.1425861015       -6.4925005853       47.4850252744
  H        11.1911909758       -5.9888692839       48.3921215481
  H        11.8440417363       -6.0155025533       46.9547111009
  O        12.5472654779       -0.4924117268       52.9955639136
  H        12.2615166835       -1.3171607761       52.5382934869
  H        12.4917066933       -0.5688487199       53.9703585173
  O         7.4576164565        1.5672465403       49.7073569462
  H         6.7313862267        0.9928249487       49.9610946450
  H         7.6163844941        2.2456660913       50.5450795227
  O        -1.6750452057       -5.0504856678       50.0090845841
  H        -1.4075525832       -4.1854131566       50.4317360179
  H        -2.5216606982       -5.3747673329       50.4027447311
  O        17.7812897968       -1.7561440569       59.2054481816
  H        17.4851829943       -0.8363948845       58.8360958919
  H        18.2462905421       -2.1487528495       58.4083949793
  O         6.8366167232        0.4973499467       43.9105610169
  H         7.5872712157        0.5451132976       44.5502177045
  H         6.9748080141       -0.1142906929       43.1697973661
  O        15.5594319525        5.5026981429       53.3079799453
  H        15.2744746269        6.4179210449       53.5166233383
  H        14.8661301813        5.1110469440       52.7131709826
  O         5.6744300932       -6.9750749109       40.1378125057
  H         5.7582914068       -6.1494722842       39.5276298172
  H         4.6974767252       -6.8554773976       40.3069800564
  O        12.6293174905       -0.3254780119       43.1094538888
  H        12.7142348234        0.6297224178       43.3594054653
  H        11.8965892380       -0.7714956346       43.6194921881
  O        10.8347747477       -1.5601992403       44.7495516972
  H        10.5992975667       -2.4252041172       44.3346399373
  H        11.0173072376       -1.8923332835       45.6909983561
  O         5.5041802187        6.4138234544       45.5227306883
  H         6.1687339064        5.8345704719       45.0845023255
  H         4.6476832289        6.0622697766       45.2555631267
  O         1.6307313319       -0.2323548924       58.5649720909
  H         1.1840473266        0.1112499524       57.7850557557
  H         1.8919203097       -1.1408278387       58.3358255342
  O         7.9454580509       -1.5306218908       47.9010773952
  H         8.3332090476       -0.7863539758       47.4185983785
  H         6.9450117333       -1.5268245666       47.7967959212
  O         8.3562208834        5.0321876058       46.0385013993
  H         8.8573904599        5.6083947740       46.6477451616
  H         9.0825601020        4.4073210117       45.6875382387
  O        17.2336621857        0.2549730503       50.6008315121
  H        16.9178040203        1.1308074497       50.9495827059
  H        16.8523096918        0.2804961764       49.6956719121
  O        18.4710765719       -3.0752602661       44.2104105551
  H        17.5091678410       -3.1593201589       43.9047328185
  H        18.7444261244       -4.0276209292       44.2786210870
  O        10.4763126680        4.6865121528       53.2973320991
  H        10.4598419671        4.4460201919       52.3100530792
  H        10.3910874094        3.8243104837       53.7342610930
  O         6.6148022967        2.5907499028       47.2602984479
  H         7.2958500517        3.1296504106       46.7820918554
  H         6.9282723467        2.3968261981       48.1925080936
  O        11.7778024210       -5.5598983829       54.4577777503
  H        11.2796914970       -4.8943952925       54.9626921898
  H        11.1224264280       -6.2117699621       54.0644611134
  O        13.2527047944        5.5633673556       38.8816072856
  H        13.9353344598        5.4460012001       38.1590597669
  H        12.8339265435        6.4434625234       38.8762772129
  O         6.9798256450        6.7889147781       49.2949972984
  H         7.6711825763        7.3300486326       48.7751357631
  H         6.4057872880        6.2471570803       48.6672815625
  O        16.0762962922        2.5632386180       54.0470330885
  H        15.2290667492        3.0154745523       54.1622565883
  H        16.0055448109        1.6700749607       54.3964485584
  O         7.5716044356       -9.3938143421       39.3937448605
  H         7.9134167266       -8.4848602903       39.1930761332
  H         7.6153754928       -9.5020582879       40.3624631927
  O         3.1140947511        4.7662801007       49.5719292955
  H         3.7345655479        5.1129588118       48.9173536729
  H         3.7362145360        4.1436361121       50.1740477568
  O        14.0976972896       -2.1787310017       37.0856594955
  H        14.6628053563       -2.3266089279       37.8684942643
  H        14.4607048598       -1.4236041699       36.4972286122
  O        13.2626199570      -10.2193471255       56.3151106930
  H        13.1094640711       -9.4665444705       55.6771437387
  H        13.9810418370       -9.9670720033       56.9630580073
  O        15.9350569405       -2.5681315425       42.9887366134
  H        15.4213944406       -3.2949232120       42.5193926758
  H        15.4860192510       -2.7225454493       43.8940137649
  O         8.8004225697       -4.6614801816       47.6142535152
  H         9.6175570787       -4.6075090225       48.2070629914
  H         8.6385461419       -3.6941737803       47.3570781372
  O         4.4534467246       -9.3596219005       51.1872840308
  H         4.3278057163       -9.4857229156       52.1772097996
  H         5.3174727964       -8.8742840969       51.2522741404
  O         3.3176071738       -0.2099419144       48.2678714450
  H         2.6984474489       -0.0562839931       47.4923056089
  H         3.8922396366       -0.8559829823       47.8750291210
  O         3.2436517082       -0.5863109171       53.5569476644
  H         3.2210446578       -1.1235159371       54.4428985123
  H         2.3490530647       -0.3160754941       53.3246924084
  O        12.8655056156       -7.2352844766       44.0882116434
  H        12.7187176528       -6.6172365513       43.3542688137
  H        12.0337817200       -7.6449281101       44.4153977150
  O         7.3370385551        2.7051449662       42.2368266812
  H         7.1403608445        1.8162973062       42.5322843696
  H         6.6959846713        3.4411126032       42.5341382378
  O        17.5189168343        0.6401445568       45.9528104993
  H        17.9318046249        0.4597317303       45.0465907340
  H        18.3255736713        0.9811230971       46.4287306538
  O        18.0089137271        4.9469734532       43.0791601539
  H        17.6891988581        5.1821377784       42.1643376073
  H        17.2856484006        4.3905038031       43.4124683729
  O        13.3444017181       -5.3318662880       46.3677839040
  H        13.9910674061       -5.5407484385       47.0765192876
  H        13.4515398716       -5.9916328295       45.5960078801
  O        15.0485153477       -2.7713036428       45.6303501977
  H        15.8465897955       -2.7544507158       46.1692042951
  H        14.5449057893       -3.5751652579       45.7963652063
  O        14.3949789236       -4.5631273027       53.8246678168
  H        14.5845293126       -3.9585560543       53.0439017164
  H        13.4214561133       -4.8530528061       53.8725129370
  O        20.6275406662       -5.3585450136       44.0935303079
  H        20.8868074725       -6.2084144660       44.5968086320
  H        20.6983854544       -5.6934537537       43.1768106608
  O        -3.3587748962       -1.9308047440       37.9176040522
  H        -3.4817244086       -1.7666506597       36.9399913381
  H        -4.3111734269       -1.9689443354       38.2829399186
  O        13.1696536710        3.5420771115       53.7148033991
  H        12.5822146101        4.3042324607       53.6225442675
  H        13.0932278854        3.0798736733       52.8760491040
  O         9.9903721897        0.8857309432       60.9631476343
  H        10.5097325618        0.8161040184       61.7990632091
  H         9.0788556139        1.1511335582       61.3887558323
  O        10.7144050023        3.5284224001       44.9386478943
  H        10.7755431091        3.1635917288       44.0962725509
  H        11.2484419498        3.0206199591       45.5704280990
  O        15.5360475518        4.9482638906       45.1504920447
  H        15.4239832753        4.1044266207       45.6477986393
  H        14.8336949705        4.9670827053       44.4934798645
  O        21.5518830593        0.4812393321       45.8493291531
  H        22.1783580671        1.1308239770       46.2743158952
  H        22.0657002876       -0.2637958346       45.4506488419
  O        13.8168436134        2.8615604344       49.0701373983
  H        13.1203488231        3.0110403166       48.3833907131
  H        14.3516250384        3.6574166017       49.0039060792
  O        15.5805148423       -2.8253321117       51.6363453549
  H        16.3804632541       -3.3351102966       51.2745452637
  H        15.8729377384       -1.9233611652       52.0828244923
  O         5.2389558020        5.3462488286       47.8117727493
  H         5.2273506425        4.3457157228       47.6553087661
  H         5.4433565999        5.8242301325       46.9633624131
  O         0.4651929604        1.9151504965       51.5181946410
  H         1.0077401592        1.9986186373       50.6323703594
  H         0.5080437874        1.0033160647       51.9294900127
  O        19.5080446473       -1.7004506368       42.1187538044
  H        19.1824325463       -2.4295271551       42.6704366894
  H        20.3257847448       -2.1693266095       41.8098969564
  O        11.8674984716       -2.3634035849       51.1586734461
  H        10.9482155426       -1.9853039874       50.8648845585
  H        12.4645668482       -2.0563478311       50.4471679958
  O         3.2193229931        2.6152850127       46.6176110111
  H         2.8628989414        2.3114008880       47.4405133748
  H         3.9834545843        1.9780184629       46.4235337361
  O        10.0373371652        2.4448343241       55.0732454798
  H        10.1974824483        1.8795724948       54.2559974209
  H         9.0605606186        2.5191632380       55.1597738874
  O        11.5192829824        3.2158048150       47.5254637145
  H        10.6910282873        3.0170565284       48.0218940846
  H        11.5741152059        4.2283643384       47.7196581261
  O        10.2783771421       -3.8398437923       55.7429609810
  H         9.9853236350       -3.4674210048       54.8872590902
  H         9.4717849000       -4.2969216080       56.1163400927
  O         5.2910312594       -4.3213859801       51.0218470536
  H         5.8259022186       -3.5534604129       51.2962567219
  H         5.8841668757       -4.7921356199       50.3722723392
  O         2.9147903883       -4.2805092911       48.0855404452
  H         2.5465969349       -3.5447801008       48.5940121501
  H         3.7648310062       -4.5876822964       48.5150542644
  O        10.8984518077        3.9418020189       50.5269969171
  H        11.1844940864        3.0230275259       50.6238444260
  H        11.7659430373        4.5030529982       50.4446282362
  O        10.3281961260        1.1363993583       52.7496890420
  H        11.1115355898        0.5183312559       52.7459129149
  H         9.5425879795        0.6536448447       52.3984242542
  O        21.1950950580       -6.9223890632       38.5344156609
  H        20.4827228631       -6.6409504158       37.8463310283
  H        21.7154371925       -7.6668484419       38.1350613786
  O         9.0802566322       -3.6304739060       40.8328915699
  H         8.6166454983       -4.5227917040       40.9514271457
  H         9.2811652141       -3.4396511319       39.8800648568
  O         8.1577461945       -6.0635867370       41.3004855054
  H         8.8648478179       -6.8115948007       41.0868954736
  H         7.2602104737       -6.4223753475       41.0657887472
  N        11.6477994329       -1.7374520024       47.3813222270
  H        11.8197217036       -2.6639357536       47.8138597565
  H        12.4126801260       -1.1142990283       47.1469437265
  H        10.9358542745       -1.2449949141       47.9237870876
