     193
 CELL 12.4294 12.4294 12.4294 90.0 90.0 90.0 i =    87320, time =    43660.000, E =     -1096.5387169118
  O         6.6394733356       -1.4613080043       42.8139680086
  H         5.9407588231       -1.6518416259       42.0199690123
  H         6.0409572082       -1.2531695980       43.6302470419
  O         7.4527044021       -8.2117252559       41.1133864030
  H         8.3174794986       -8.6963144951       41.0444932517
  H         7.6210210597       -7.3202893469       41.3822522430
  O        11.7585704296       -2.4524034041       42.1521092095
  H        12.5024963539       -2.9388715504       41.6480077718
  H        11.5954238828       -3.0891243009       42.8892879862
  O         8.8993903027        0.2121595797       42.4691477798
  H         8.2673737140       -0.5525733835       42.5914497111
  H         8.3354469243        0.9617697543       42.7042626502
  O        -3.0878036302       -5.3738634515       37.8200359162
  H        -2.7957319634       -4.7386988215       38.5780928558
  H        -2.4070933721       -5.0391815248       37.1200619463
  O        15.3944735094       -2.9842756548       49.6929914052
  H        16.1889866365       -2.6088687730       49.1899800102
  H        15.3958909535       -3.9838437444       49.5484758650
  O         6.9148272799       -1.1406968007       34.2317307956
  H         7.6398880021       -1.3922628278       34.9150952071
  H         6.5919228092       -1.9580623507       33.7797812048
  O        14.4763768711        3.9646340219       44.0258673842
  H        14.4801098123        4.7316970033       44.5728639550
  H        14.1173825983        4.2466816235       43.1606397447
  O         6.2728545751       -7.6949234110       32.2860939287
  H         5.8188598653       -6.9511090404       31.8091211534
  H         5.5175764716       -8.2752893684       32.5567243523
  O        11.8299849766       -3.3229366723       32.7689240917
  H        11.2208476245       -2.5400010375       33.1068536183
  H        11.3582013738       -4.1268092939       32.9697963577
  O        11.0816317674       -4.6660584760       35.9647664610
  H        11.8936896340       -5.1913941918       35.7260788161
  H        10.5298778270       -4.7327496391       35.0959465219
  O         2.8215529447        6.7030123613       37.2358580386
  H         3.6484494012        6.1440947479       37.1829415756
  H         2.2861273583        6.4006844910       36.4651391341
  O        -1.2755099700       -0.7080039798       46.2026377496
  H        -1.1566459897       -0.3097622174       45.2758894373
  H        -0.5072575454       -0.4291987552       46.7071143736
  O         8.3868997222       -2.0309252599       38.6306351329
  H         8.4881729889       -2.1885166302       37.7010672928
  H         7.8202360476       -1.2122533855       38.7676973699
  O         8.0466397248        2.5423507210       38.4041232550
  H         8.5575946429        3.0695122571       39.0278348122
  H         8.3867228936        2.9192679560       37.5505894877
  O        17.1382613546       -1.1526322444       40.7508996724
  H        16.7153497890       -0.3872275402       41.2427973287
  H        16.3616251854       -1.6340172368       40.4330987994
  O        16.6305692035       -4.8482929662       34.5900832987
  H        15.7151583738       -4.5094783906       34.7175043146
  H        16.8073046204       -5.3085353802       35.4003090143
  O        10.1309316984        3.1795035125       44.1927197239
  H        10.0668734421        3.0279053952       43.2034287551
  H         9.4076554067        2.6520454283       44.5841778028
  O         6.3068834527       -0.0937174909       38.6931348354
  H         6.5255793311        0.8190722472       38.8557078778
  H         5.7694782120       -0.3605855681       39.5003207415
  O        10.8296928921       -6.5922297106       44.0344573998
  H        10.3007222249       -6.2378274439       44.7798822307
  H        10.6437015898       -7.6150232982       44.2115097914
  O        13.3656373332        4.3641397946       28.7439521629
  H        13.4763970973        3.6491619693       28.0732923385
  H        13.1865874985        5.1939593620       28.3081458473
  O         3.9071975042        5.7904791216       40.7823325653
  H         4.5057186807        5.3198307057       40.1589786462
  H         3.0443723599        5.3532587436       40.6709646446
  O        14.6633125021        0.7214117770       43.5080451185
  H        13.8414782692        0.9804388550       43.9818747283
  H        14.8921854826       -0.0586069536       43.9622204096
  O         6.7835936503      -10.2600132281       30.7438592830
  H         6.7794036888       -9.2915099252       30.8380808524
  H         6.3393990229      -10.5828387341       31.5699712710
  O         3.7882039287        2.2933741218       39.2585314520
  H         4.5199002205        3.0018705834       39.1459662690
  H         3.8810120762        2.0008526197       40.2307577205
  O        13.6857495981       -3.9348612859       28.7299795415
  H        14.0877361803       -3.9786661643       29.6484589990
  H        14.2232605784       -3.3511672740       28.1509597433
  O        11.2458907765       -8.9644985306       47.1684640340
  H        11.6227619746       -9.3492604244       46.3368977950
  H        11.7259652099       -9.4312738076       47.8857669816
  O        14.2499825174       -3.0886897028       34.4002154224
  H        13.4624784226       -3.2225583811       33.7838579134
  H        13.9868140002       -2.3900666109       34.9873552518
  O         6.8647025552       -4.4718196343       37.7479528362
  H         7.7818573136       -4.7885327859       37.7338175222
  H         6.8897853579       -3.5779743422       38.0961208991
  O         4.1676308392      -11.0765476226       41.6538967260
  H         3.6850524073      -10.7795975907       42.5048671809
  H         5.0895821448      -10.8690893323       41.8908320092
  O         2.3938709315       -2.2251989044       39.6432816097
  H         1.8574622813       -1.4349666152       39.7875777307
  H         2.6157235384       -2.3819064969       38.6868905077
  O         3.1711594321       -1.5951922976       44.7600526750
  H         3.9860575883       -1.1999753560       45.1492414880
  H         2.6471456835       -1.8923595857       45.5001300061
  O        13.4198122747       -6.6213990990       35.0882193901
  H        13.2899145317       -6.4218066668       34.0717075098
  H        12.6096649318       -7.1667911304       35.2643633713
  O         5.3949550261        0.3081842421       32.5789275927
  H         6.0116956395       -0.0467608845       33.3307693500
  H         4.7833471762        0.9554434845       33.0451578639
  O        17.4199335390       -0.7670160059       36.3008139670
  H        18.1022171201       -0.8205718545       35.6368898356
  H        17.9213328683       -0.5630997757       37.1437052842
  O        16.7101316094        3.0072218893       33.1091227703
  H        15.7963484598        3.1105322956       32.6775576818
  H        16.5593154404        3.3049743718       34.0616449867
  O        10.7961004648       -7.5987176725       38.7235184486
  H        11.5897709164       -7.1004051607       38.9935099109
  H        10.2545069403       -6.8950348172       38.3690171369
  O        12.8494480505       -0.8241197319       35.8543909099
  H        13.5581643845       -0.2839060910       36.2950414570
  H        12.1660659885       -1.1692674754       36.5563099617
  O        13.1305114510       -5.9085434403       44.8527624928
  H        13.5738539042       -5.0942238520       44.5177790811
  H        12.2840146335       -6.1310907087       44.3159516960
  O        17.7993129229       -6.5728982251       36.6689447874
  H        18.3160815276       -5.8031641012       36.9471452407
  H        18.3410673701       -7.0091055798       35.9853254290
  O        -1.7093110566        0.3805553643       27.9754049377
  H        -2.4103975534        0.0949552356       28.6719331432
  H        -0.8144338447       -0.0398960739       28.2477577690
  O        12.7752986460        1.9914587712       45.0089972918
  H        13.1721928077        2.6579798493       44.3327347288
  H        12.0830854001        1.5049176645       44.5079101569
  O         9.8718366849        0.9594213336       49.9030965221
  H        10.4441870955        0.5228951180       50.6178109480
  H         9.0339329587        1.2880423513       50.4119389117
  O         8.7465824978        3.2273619007       35.6621448670
  H         8.3753508629        2.3779399584       35.3536880515
  H         9.6961656469        3.2028055223       35.3011936084
  O        15.6579973868        3.3639992454       35.4597820158
  H        15.3308530673        2.5241432206       35.8860615032
  H        14.8599753514        3.9364761278       35.1372994841
  O        21.5212400693       -1.2352491752       35.8553522096
  H        21.5885311068       -0.4578631182       36.4932456532
  H        22.4164910262       -1.2137801978       35.3594615396
  O        13.5777559457        2.3196116454       39.4009087335
  H        13.1559112607        2.3986491218       38.5506697831
  H        14.5964628979        2.2797503976       39.2184653696
  O        15.0868517757       -4.1635471812       43.6520795074
  H        15.9082635704       -4.7074364554       43.5511906968
  H        15.4567326611       -3.2084800328       43.9871985788
  O         5.8180732704        4.2444277785       39.1224128291
  H         6.6082850119        4.3414072067       39.7567163354
  H         5.6979162152        4.8918602558       38.3866410591
  O         1.1194217965       -0.0749386594       40.7586133877
  H         0.9538983218        0.8553292033       40.4317818850
  H         1.4020173380        0.0868156273       41.7120226403
  O        18.2881591205       -3.0802900568       32.9380852447
  H        17.7320971750       -3.8701801864       33.3654296154
  H        19.0822326213       -3.5041488438       32.4397729755
  O         9.5914772189       -3.6759659900       40.2754070286
  H         9.0783472585       -2.9164762482       39.8955274241
  H        10.2889763581       -3.2647967875       40.7954364440
  O         2.7763970479        0.9135057042       36.7181179330
  H         3.1493338754        1.1274284046       37.6170648103
  H         3.5093438259        0.3823475271       36.3337824011
  O         8.8078350378        1.0602906896       45.8854370893
  H         9.5513547354        0.4151586049       45.9672317397
  H         8.0585696260        0.4239952992       45.9409976866
  O        11.9277601836        2.9706800803       37.2957696752
  H        11.2875464445        2.1937583480       37.2397357292
  H        11.4309438421        3.7444934806       37.7100204526
  O         9.4834713330       -5.1331312646       46.0516776811
  H         9.0242877813       -4.4260710843       45.5815567427
  H         8.8059955242       -5.7212325985       46.4529336420
  O         5.2075801509       -5.5426626275       42.8350660974
  H         5.6063462760       -4.7042103077       42.6254530775
  H         4.8064833786       -6.0045428793       42.0641992498
  O         0.6134712607       -6.0846538129       39.2463036294
  H         0.6427397079       -5.2169362002       39.7453146729
  H         1.4016537620       -6.0079263530       38.6189616158
  O        10.1457845015        3.0583668103       41.2332111399
  H        10.5067334430        2.1880580042       40.8179123531
  H        10.6696723858        3.8657548691       41.0184793703
  O        11.3767535437        0.0711790822       43.5047942129
  H        11.6365393740       -0.7863448362       42.9950117072
  H        10.4395268152        0.1985212928       43.1727227384
  O        21.2909329166       -5.6062392475       29.7030619736
  H        21.6011101690       -5.0414817203       28.9903515292
  H        21.9877538781       -6.1525887007       30.0885501467
  O         8.0386777715       -3.7189029122       31.5872819329
  H         8.1295466034       -4.4592082827       31.0164507328
  H         7.6391547233       -2.9595267133       31.0398260099
  O         7.4541176876       -6.9889981974       34.6440351124
  H         7.8953969341       -7.8319880851       34.8959946831
  H         6.9307055679       -7.3264773665       33.8194492181
  N        11.4121649654       -2.1605124393       37.7870818105
  H        12.2662778205       -2.5076406089       38.3047998330
  H        10.6067528218       -2.0406772970       38.4509970562
  H        11.2757642582       -3.0213093590       37.2017778363
