     193
 CELL 12.4294 12.4294 12.4294 90.0 90.0 90.0 i =    61320, time =    30660.000, E =     -1096.5026996469
  O         2.2485455966       -2.1474404885       29.4169839279
  H         3.0612319252       -1.6010984495       29.4586049369
  H         1.4966420757       -1.5684379002       29.5815218202
  O         3.5269575338       -9.3924750799       24.5037636257
  H         4.2830113582       -9.9949385087       24.5796507209
  H         3.5497963683       -8.9881626284       25.3784208806
  O         6.4908049274       -6.2667558080       27.2799214510
  H         6.9919471254       -6.7267097657       27.9719139876
  H         5.7549695297       -6.8000763946       26.9022888004
  O         4.3426166852       -0.2654449525       29.1947360473
  H         4.4440816115        0.4657453195       29.8403242272
  H         4.2738104782        0.1930988300       28.3644140470
  O        -6.9650626790       -5.4081003664       23.7032808212
  H        -7.3090503557       -4.9322888144       24.5121389449
  H        -6.5758814453       -4.7581906541       23.0919423437
  O         9.1243804505       -6.4255073305       32.2043607477
  H         8.6740008399       -5.8076377667       31.5997650302
  H         9.2905156502       -5.9072853596       33.0307478064
  O         2.0202975887       -2.8234229063       19.8140191044
  H         1.4089553418       -2.3317435567       20.4250883101
  H         2.1824405782       -2.4107864797       18.9934456327
  O        10.5141274220        4.1195041295       30.5397366039
  H        10.2668663412        4.8838279527       31.0916460668
  H         9.9505812473        4.1618545416       29.7303857080
  O         0.1465869259       -6.3030729520       17.2154525932
  H         0.2655689968       -5.8487170473       18.1045297258
  H        -0.3668712063       -7.0999292445       17.4112632070
  O         4.4361491298       -3.5981697892       20.2061072680
  H         3.5337218387       -3.1285763152       20.0898965697
  H         4.7767331152       -4.0225731970       19.3868627219
  O         5.7725961534       -6.7056262630       19.4584820068
  H         6.2888537990       -6.1348057031       20.0150587108
  H         4.8174086487       -6.7513547664       19.7572319377
  O        -2.5930254747        5.9910686884       22.9850996402
  H        -2.0057549077        5.2421822382       23.1927854016
  H        -3.4289924835        5.5976398787       23.3617062392
  O        -5.0669962225       -1.9506326866       30.2962002327
  H        -5.3984737313       -1.6038674868       31.1727146547
  H        -5.8895926279       -2.0915984532       29.8127083423
  O         2.4313265879       -3.9620951453       23.0053611543
  H         2.4627723626       -4.9785112085       23.1075813274
  H         2.9276201289       -3.8676770553       22.1748307527
  O         2.7010385464        0.2375248782       21.9065636454
  H         2.2058420171        0.7930869527       22.5806802530
  H         3.6782780096        0.3960906324       21.9581124301
  O        15.4737487493        1.2250928730       26.6294674250
  H        14.6269141495        1.6128183145       26.9061111488
  H        15.1383702368        0.3457438403       26.3503143856
  O         8.2719213911       -4.5566671182       17.8266404372
  H         8.7931778786       -4.8329912271       16.9421665295
  H         8.0088832203       -3.5975940019       17.8561466678
  O         6.5903812388        2.6952856034       28.7829035932
  H         7.0269298900        1.7854734209       28.7641513465
  H         5.9510524665        2.5901416897       29.6097169265
  O         2.3406567994       -1.4128697249       24.1975469529
  H         2.4220312014       -1.0540869181       23.3608117640
  H         1.8873376039       -2.2950352677       23.9887720552
  O         4.3984690019       -8.2384445620       27.1218019400
  H         3.8853681432       -7.7876332190       27.8419290010
  H         4.9921359535       -8.8235398292       27.6661304625
  O        10.5606439847        3.3688850384       15.1959553144
  H        10.1645425081        2.5930113780       14.7113589846
  H        10.3909158570        4.1618643420       14.5896229466
  O         0.9876990715        2.7685521834       28.0742966571
  H         0.0904822588        3.1534284875       27.8873550863
  H         1.3343971588        3.0848436389       28.9079704272
  O        10.8904364910       -1.0071239626       31.4823329397
  H        11.4275811880       -1.3802956356       30.7791672493
  H        10.3924301459       -1.7953482308       31.8717393138
  O         2.1209235332       -9.1872051385       18.3761346868
  H         2.4462356179       -8.3739904517       18.8654930876
  H         1.5344282671       -9.7221838139       19.0087008345
  O         0.3344070632       -0.1577972725       26.2016081058
  H         0.4234791757        0.6116363711       25.6122068274
  H         1.0519385289       -0.7347325889       25.8729510455
  O        10.4508080451       -5.1615072832       16.0116171395
  H        11.2818779257       -5.5095928951       16.5327760919
  H        10.6782720645       -4.2463513502       15.5433118360
  O         9.0757875900      -11.0679265320       30.8407744063
  H         8.7435189663      -11.5865872984       30.0140769726
  H         9.8920546518      -11.5095383215       31.0188408676
  O         6.6307190417       -4.3006203030       21.6241621434
  H         5.8299472564       -3.8018180253       21.2373533653
  H         7.3163614589       -3.7495507879       21.9882011300
  O         1.1219998718       -6.9386071147       22.7295480866
  H         0.8689826438       -6.9253613380       23.6795367284
  H         0.6799610971       -6.1450151929       22.3567135502
  O         0.7476576703      -12.2193264565       30.1476260302
  H         0.2252780318      -11.6039957628       30.7031379089
  H         1.3321436352      -11.6483044847       29.6609060715
  O        -1.5227535729       -3.0155420580       27.0339089019
  H        -1.5980880674       -2.1313883366       27.4477281372
  H        -0.5482096347       -3.0557441513       26.7826199258
  O        -2.5760432803       -3.3887020588       32.5222173802
  H        -2.7533120923       -3.9196202311       31.7947120222
  H        -1.9709261526       -3.8912095242       33.2042169752
  O         7.9063113946       -8.9745652672       19.7556702961
  H         8.3529161453       -8.1445899199       19.6544406711
  H         8.4211496694       -9.6058262722       19.1632146397
  O         0.4515253544       -0.9529469282       20.9871637776
  H        -0.1333155292       -0.7785872261       20.2630286274
  H         1.1936509079       -0.2477229992       21.1083428815
  O        11.4878065833       -4.6419138171       21.8295251952
  H        10.8116452643       -5.1353754988       22.3556857117
  H        11.8731485145       -4.0516564864       22.5014131395
  O        12.1162973768        2.3188091492       19.2429188915
  H        11.6183859313        2.9077289226       18.6189242880
  H        11.3989620774        1.9506135782       19.7721562345
  O         7.4996342185       -7.1437750995       24.6112412972
  H         7.5473721996       -6.8587300546       25.5260479047
  H         6.6967350432       -6.6517376183       24.2787429692
  O         8.5507422438       -2.3450456204       22.7313829339
  H         9.2985057367       -2.5491527379       22.1796193147
  H         8.6327311725       -2.6511303288       23.6729299052
  O         4.8932210099       -4.9067898583       29.9299469902
  H         5.2594698048       -4.3710508486       29.2008060086
  H         5.5729605075       -5.5464574889       30.2474969643
  O        11.3536018494       -8.7556586209       23.1526659839
  H        11.9277210748       -8.1647086529       22.5886254409
  H        10.6612070557       -9.1584573897       22.5024023476
  O        -4.2585283121        0.0305683020       16.2746550288
  H        -4.6021155444       -0.7974133022       16.6862120006
  H        -3.3344097350       -0.0753210028       15.9816912918
  O         7.6874950238        4.9404008549       29.4277221739
  H         7.1481554774        5.0240278341       30.2502910914
  H         7.7519985489        3.9556927039       29.3213112639
  O         7.5399889213       -0.5425441015       32.8408126500
  H         7.8907886330       -1.2272454125       33.3976096917
  H         8.2418021367        0.1129306277       32.5795961935
  O         5.5066086356        2.9641022247       20.7368485539
  H         6.2990348211        3.4470321441       20.3826772976
  H         5.0290567441        3.6434631732       21.3268674715
  O         9.8905564084        2.0129311594       21.3108956804
  H         9.7164822949        1.3773251428       22.0454144185
  H         9.0965136760        2.4129982891       20.9588544456
  O        17.7542254266        0.4603599893       22.0788137358
  H        18.1424603654        1.3603526228       21.7698061295
  H        18.3181887999       -0.2456516128       21.7017231833
  O         9.9549302095        0.1927769573       23.2155455426
  H         9.3026668885       -0.5612545935       23.1488582783
  H         9.7709243694        0.7025668680       24.0533405294
  O        10.9384438454       -0.4088672547       28.0738687452
  H        11.4812204815       -0.0880592001       28.8060408678
  H        11.4797931317       -0.1439609820       27.2858152930
  O         1.0050671567        1.5509081001       23.7759553288
  H         1.6941867460        2.0939003920       24.2064457997
  H         0.2532227969        2.1425150056       23.5027981837
  O        -3.2104857923        1.4257301245       25.8858419433
  H        -3.4222040056        0.4859648874       26.1157944520
  H        -4.1355265554        1.7894248340       25.6959845694
  O        13.1945155994       -5.1922954573       19.5061146888
  H        12.3687326611       -5.0481052033       20.0445335493
  H        13.6104520826       -4.2891944251       19.4137591640
  O         4.2468385550       -3.3408326441       25.5820778908
  H         3.7830996115       -2.6318830043       25.1263116457
  H         3.5770722872       -4.0898929459       25.7808757409
  O        -0.3437454882       -2.3199889015       23.3510779835
  H        -0.0455460289       -1.6161087962       22.7009861378
  H        -0.5944791856       -1.8772825828       24.1948044909
  O         4.8404965630        2.0974343458       30.7110649209
  H         5.1951421836        2.3433934696       31.6186737897
  H         3.9164266073        2.4399042386       30.6838220572
  O         4.1249348305        4.8253403537       22.4749595726
  H         4.5763477188        5.5597710137       22.8974430668
  H         3.8219703514        4.3352052354       23.2373779402
  O         3.0108195707       -6.5605438878       28.8485893670
  H         3.6452226943       -5.9553381446       29.3643099469
  H         2.2304823861       -6.8457629835       29.3426585240
  O         1.1520495652       -2.9666551550       26.8963272644
  H         1.4756323213       -3.7655613872       26.4649830364
  H         1.7032240167       -2.8045121710       27.7314289925
  O        -2.0337580123       -6.6414604887       26.1756276330
  H        -1.9944826069       -5.9698027051       26.8741324010
  H        -2.4262353362       -6.2000563847       25.3704813242
  O         6.8299097438        2.7565317603       25.4665218178
  H         6.5193636754        2.9328419778       26.3552096519
  H         6.9043411162        3.5767385478       24.9084006053
  O         6.0489025202       -3.5430685961       27.8191448846
  H         5.2388939901       -3.3789949443       27.2288209946
  H         6.3478818493       -4.4773883007       27.6084102874
  O        13.1567684153       -7.4773574962       13.1375916514
  H        12.2017690941       -7.2093491587       13.4419242979
  H        13.3460311161       -8.3654810704       13.5506419980
  O         2.4753712343       -5.3303195012       13.9645769396
  H         2.6423723520       -5.5707559381       14.9151044680
  H         1.8107824712       -6.0465238645       13.7761269945
  O         2.8665816818       -7.1152712646       20.0373749822
  H         2.9340090032       -7.4659876755       20.9461348911
  H         2.0713754641       -6.4837302321       20.0424024716
  N         8.3780982022       -3.4385396675       25.1843080715
  H         8.6797615878       -2.6663224795       25.8292550563
  H         7.4491240595       -3.7389668339       25.4804025167
  H         9.0049579178       -4.1942100565       25.4960258565
