     193
 CELL 12.4294 12.4294 12.4294 90.0 90.0 90.0 i =    65720, time =    32860.000, E =     -1096.4750610948
  O         2.3287606009       -2.6660213246       32.0198053706
  H         3.2239188116       -2.3598045010       31.7969392253
  H         1.8508076806       -1.7986768499       32.2262450197
  O         4.0878387195       -9.9755196697       28.5141007945
  H         5.0579636764      -10.2195501951       28.3706218968
  H         4.2663370089       -9.3769241314       29.2507178849
  O         7.2940554562       -5.5970790090       30.9821099373
  H         8.0131915042       -6.1439670837       31.4711126714
  H         6.7216391942       -6.2574754386       30.5212338316
  O         4.9474664784       -1.7513041483       31.1656043779
  H         5.2491084258       -1.1106751458       31.8315464442
  H         5.7601995268       -2.1669374647       30.8015444744
  O        -5.5917105613       -5.9813666852       26.2722246363
  H        -5.8811084873       -5.1084886767       26.7421760893
  H        -5.7445689711       -5.7369621392       25.3536613553
  O        11.6223595512       -6.3770933510       35.8571017668
  H        11.0346779288       -5.8759075330       35.2195474211
  H        11.0011752933       -6.4344268921       36.6129478987
  O         4.0397735777       -2.6302986669       22.1334609931
  H         3.0573194809       -2.3014602813       22.1093051577
  H         4.1431744960       -3.2081888935       21.3531747146
  O        11.4433956384        3.3860799983       32.5872843372
  H        10.4894069773        3.7260930259       32.8074789529
  H        11.4630327845        3.2402910371       31.6317500245
  O         0.4649467110       -6.6354125731       19.7763008111
  H         0.8852810929       -6.2028948807       20.6010074108
  H         0.2106034142       -7.5254724823       20.1818112383
  O         5.0170502650       -4.4743505837       23.6459843698
  H         4.4928379556       -3.7800228656       23.2001498591
  H         4.7654336837       -5.3317016532       23.1477084595
  O         6.8500806916       -6.8429141446       21.8160881530
  H         7.4988174083       -6.6466653018       22.5353610441
  H         6.3152244821       -7.5959635223       22.1955798883
  O        -1.3963708514        5.6986718953       26.3427168932
  H        -0.8097721481        4.8867672232       26.3536321058
  H        -2.2277302033        5.3605370014       26.0175727924
  O        -4.9432177929       -2.0938878228       33.4019148176
  H        -4.3328025114       -1.3485405439       33.4497414870
  H        -4.9108036143       -2.6225576195       34.2222843441
  O         3.1472306435       -4.2608657875       25.7643761718
  H         3.8602116509       -4.4345498959       25.0590870897
  H         3.1829592288       -3.4182626416       26.2193840977
  O         3.1917479543        0.1347290997       25.0326315403
  H         2.8076878484        0.7724200108       25.7020419193
  H         4.0205928847        0.4205538623       24.6294642108
  O        15.6968639760       -0.1831312236       29.4860665246
  H        16.1194434963        0.7040076150       29.4752759424
  H        16.2031578301       -0.6800184642       30.0841437547
  O         9.9363408591       -5.0354933675       21.5181136485
  H         9.8656488098       -5.3740444878       20.5713304474
  H         9.0687813591       -4.6899187101       21.8083510807
  O         6.5189326327        2.8448356906       31.9423352944
  H         6.7582758429        2.3545344811       31.1275438230
  H         6.1257891762        2.1570608533       32.5345949029
  O         3.8417882325       -1.6552789703       27.0109376217
  H         3.7738463499       -0.9747957601       26.3045656837
  H         3.6602383938       -1.1628893961       27.8034491790
  O         5.0818508988       -7.9579250720       30.2585478525
  H         4.2876536576       -7.3620652083       30.5648187780
  H         5.3017083980       -8.3699298712       31.0938802112
  O        11.6840160081        3.0578134416       17.5017420649
  H        11.2304357721        2.2667804875       17.1144759375
  H        11.3512122650        3.8196601191       16.9418488698
  O         1.9407916795        2.3164957138       30.6063898327
  H         1.0115288370        2.5890165585       30.4190311277
  H         2.1533109886        2.6763175238       31.4846635196
  O         9.7707752893       -0.3089584391       33.6738761585
  H         9.3820291083        0.5532990741       33.9065952747
  H        10.2981102571       -0.4228790817       34.5025937221
  O         2.7491749671       -9.7454089319       20.8828907720
  H         3.1654340896       -9.0708154604       21.4879454762
  H         1.9653974670      -10.1092825863       21.3779289715
  O         0.8134434711       -0.9233452697       28.3261390840
  H         1.5596144739       -0.3961622219       28.7047537962
  H         1.0056992112       -1.8667025517       28.4852420786
  O        10.3246320547       -5.7869520334       18.8454660864
  H        11.2228299855       -6.1272618518       19.2920729439
  H        10.6456134038       -4.9564080146       18.3824048563
  O         8.4727334141      -10.6639584391       35.3563717466
  H         7.6993565966      -10.2098610032       34.9190577157
  H         8.0776813530      -11.4191818815       35.9133907392
  O         7.6515074005       -3.9862470431       23.1213827856
  H         6.6644686020       -4.1567962483       23.1869239695
  H         7.8795883895       -3.5866453523       23.9780903556
  O         2.3730186562       -6.9623269080       25.0556325054
  H         3.0934753638       -7.4232968054       25.6737119680
  H         2.2074930329       -6.0782438020       25.5330694418
  O         1.0751137776      -12.6503819424       32.0200700726
  H         1.0730676056      -12.1614716334       32.8585896902
  H         1.5523744920      -11.9861237057       31.4021797487
  O        -1.1754351436       -3.5786792918       29.8676304986
  H        -1.3732541003       -2.7710569389       30.4003345069
  H        -0.1856900206       -3.7151420338       29.7298478647
  O        -1.5104186953       -2.5107658998       35.7161174815
  H        -1.7529829016       -3.0110609278       34.9615922818
  H        -0.5730520524       -2.7660100849       35.9952747956
  O         9.4185760502       -8.2747035346       23.7652654909
  H        10.1179441531       -8.0470950285       23.1202805559
  H         9.3033765152       -9.2597905517       23.6943109909
  O         1.7697475288       -1.5387108211       22.8811713949
  H         1.4220514680       -1.8645443769       23.6859647493
  H         2.1215095164       -0.6388065154       23.0122290553
  O        13.3084635138       -4.1173327161       24.0901437780
  H        12.7013293074       -4.8771015391       24.3510705914
  H        14.1163666509       -4.2806213816       24.5895328460
  O        12.8997480593        1.5140569118       21.8126073759
  H        12.1989407128        2.0310854056       21.3249063683
  H        12.5103826979        1.2443314416       22.6971468508
  O         8.3185093614       -8.4390034896       27.2873506235
  H         8.7681525769       -7.8693892809       27.9796547037
  H         7.7347117257       -7.8602428771       26.7320178262
  O         8.7966703597       -2.2434012174       25.1515719194
  H         9.3897987332       -2.1049178890       24.3868792997
  H         9.2593284173       -2.8098887998       25.8122701940
  O         5.1963364603       -4.7889654193       32.6654032208
  H         5.8960635887       -4.6598790599       32.0099906804
  H         5.6467327253       -5.2667817345       33.4103749507
  O        12.7081940181       -8.8469018045       25.6581033877
  H        13.1961475370       -8.3142398011       24.9750202799
  H        12.2263757090       -9.6809294973       25.4351364474
  O        -4.2633282433       -0.1223791359       17.8359958936
  H        -4.6124886533       -1.0219222711       17.8459348782
  H        -3.4516386347       -0.2076738590       18.3718596151
  O         8.7953250480        4.3003481794       32.6152416698
  H         8.2864380586        4.8190151860       33.2564232815
  H         8.0755966420        3.7025410475       32.3370145322
  O         7.3727369951        0.0480625373       37.1546868332
  H         7.8152265111       -0.8561167777       37.3062468711
  H         7.9233057303        0.6083617348       37.7266622970
  O         5.7801446503        3.2083074880       22.9316821664
  H         5.5034817090        2.2883599587       23.0573117411
  H         5.5527411209        3.7395978078       23.7524376230
  O        11.7134484248        0.5732693310       23.9676790903
  H        12.0150279589       -0.1173752973       24.5626507851
  H        11.0077024018        1.1107626144       24.3500691665
  O        17.7159348671        0.2063264783       23.0754691229
  H        18.3876555620        0.0958806309       23.8222917238
  H        17.5884194770       -0.7462351022       22.8186599943
  O         9.4983896477        1.5193676709       25.9132254172
  H         8.9090035641        2.1632547570       26.2462824663
  H         9.9546681023        1.0952469442       26.6284044204
  O        10.8669219606       -1.0816706581       31.2644453565
  H        10.5212108024       -1.0085115035       32.2183438628
  H        11.7152627801       -0.5207562399       31.2744501580
  O         1.8756591652        1.7247770046       27.0705322033
  H         2.5505725084        2.1550398677       27.7217681276
  H         1.4020968821        2.4738193230       26.6061086511
  O        -1.7545979397        0.4301400455       28.3536118702
  H        -0.8870624393        0.0045471360       28.5468904167
  H        -2.4593458255        0.0287738231       28.9335002935
  O        14.5797306265       -4.6972625678       21.4276393807
  H        14.1988672420       -4.0842263202       22.1568833462
  H        14.5818487565       -3.9676761531       20.7154784269
  O         5.7094686974       -3.6687712333       27.7123132703
  H         5.4517564436       -2.8198584699       27.2442259349
  H         4.8741343333       -4.0896678502       28.0609176333
  O        -0.0253022751       -1.4301350296       25.5723030942
  H         0.4884178671       -1.3941281111       26.4112445801
  H        -0.7596536321       -2.0785010336       25.6468549023
  O         4.4479248173        0.8313600553       32.6246378945
  H         4.8675772859        0.5873273387       33.4962419432
  H         3.7406479083        1.4725457791       32.8531056128
  O         4.5899748281        4.6003456395       26.4085853980
  H         5.3532689506        5.1883971913       26.7178586173
  H         4.4334649337        4.0738775326       27.1825830759
  O         3.0731426684       -6.3281218995       31.2322319702
  H         3.6666054226       -5.9075573747       31.8725935186
  H         2.2225700743       -6.5557044260       31.6542189166
  O         1.5401379380       -3.4002938532       29.3792180187
  H         2.2408232093       -4.0015010513       28.9440334178
  H         1.9042828939       -3.1927389148       30.3037700893
  O        -2.3058565791       -7.1581196924       28.9308771835
  H        -2.2178760051       -6.5928741793       29.7566505918
  H        -1.8071741393       -6.7805251379       28.0926295813
  O         6.8208578676        2.1945188926       29.2317697723
  H         7.1927003914        1.2963392749       29.2378345994
  H         7.4773855446        2.7776550119       28.7355451737
  O         7.2113490217       -2.7802909283       30.0108762696
  H         7.0000096011       -3.4999883530       29.3429511998
  H         7.7013994308       -3.2717792951       30.7932529021
  O        14.2678950015       -7.1982653859       16.7373316863
  H        13.5379937558       -6.7693704169       17.3032115179
  H        14.3857751770       -8.1474838971       17.1153779008
  O         3.2379760062       -5.1975437504       15.8986947460
  H         3.1156825746       -5.8889817393       16.6307446219
  H         2.7549892220       -5.6059242450       15.1814342887
  O         3.7796826089       -6.5657923458       22.5421530113
  H         3.1785816755       -6.7069623820       23.2274802556
  H         3.3531559634       -5.8567442272       22.0014479469
  N        10.0835662372       -3.8737824041       27.1063959135
  H        10.8919078120       -4.4459558902       26.9944467980
  H        10.1131029963       -3.2912544301       27.9638131951
  H         9.3041184141       -4.5665740326       27.2819169689
