     193
 CELL 12.4294 12.4294 12.4294 90.0 90.0 90.0 i =    90120, time =    45060.000, E =     -1096.5558506742
  O         7.1502948922       -0.9136053185       44.8857592533
  H         6.4545401196       -1.1270273870       44.2458644324
  H         6.6584129567       -0.2959599237       45.5198842512
  O         9.1942047162       -7.7504190200       41.7429009551
  H         9.9486417696       -8.2206477006       42.1949409317
  H         9.0353858298       -7.0442796076       42.3989533012
  O        11.2186382922       -1.7900610235       44.7286759365
  H        11.9878742748       -1.9901923957       44.1935552043
  H        11.4768651419       -2.1381440291       45.6101668352
  O         8.4228950140        1.0449696208       43.1201748306
  H         7.8829375009        0.3604252252       43.5515409445
  H         7.9195561979        1.8874846477       43.2301750140
  O        -2.3264609072       -5.9259996675       39.8111347778
  H        -2.5710891407       -6.4185716045       40.6699634550
  H        -2.2260909082       -5.0116729919       40.0723799639
  O        15.8591714396       -2.7223111970       51.6274765394
  H        16.5754787447       -2.2388912345       51.1650302385
  H        16.1096791269       -3.6661920683       51.7703344207
  O         6.4421036577       -0.6071463514       36.2009163741
  H         7.3340269396       -0.6419194736       36.6782131527
  H         6.4613186419       -1.3785385472       35.5946276390
  O        14.0107928208        3.8700412644       45.6152022433
  H        13.9135649173        4.8146571828       45.8150905311
  H        14.3942917056        3.8031931153       44.7218638559
  O         6.0443079547       -7.3392826166       33.4847508006
  H         5.8941954223       -6.5636216026       32.8958404849
  H         5.1875246457       -7.6711403028       33.8865821694
  O        11.6361096064       -2.9617538396       35.2459626847
  H        11.3829723480       -2.1785597535       35.8048981203
  H        10.8063015004       -3.4734539565       35.1843132491
  O        12.4681526347       -4.6085724513       38.4209007238
  H        12.0247416771       -5.4319381094       38.0645991157
  H        13.0108103987       -4.3451631073       37.6437885929
  O         3.1851314882        6.6696264818       39.2185568539
  H         4.0308940185        6.4671113382       38.7166485286
  H         2.5754802386        6.5475068439       38.4693065143
  O        -0.8885690536       -0.3371758693       48.6312265856
  H        -0.5205398609        0.4605390137       48.1656900290
  H        -0.0789937997       -0.5858425477       49.2188962676
  O         8.6815254757       -2.5783309237       39.4851117005
  H         9.0204815114       -2.1309093634       38.6525561939
  H         8.2975154348       -1.8333670991       40.0922954627
  O         8.3557829257        3.3419304982       39.4189222922
  H         8.6395892306        3.9861214257       40.1170904772
  H         8.7261906842        3.6513023219       38.5966630805
  O        17.3432794429       -0.7647442734       42.8790552270
  H        16.9698846142        0.0328334278       43.3494455750
  H        16.5176299997       -1.2854335998       42.6231673116
  O        16.7186444260       -4.3356209011       35.8340210654
  H        15.7520112314       -4.1602148779       35.9280083627
  H        16.9981941796       -4.6752358920       36.7301005800
  O         9.8016618309        3.7767969224       45.2884446105
  H        10.0984694451        3.2978469669       44.4801046638
  H         9.5188348615        3.0650187624       45.9943197911
  O         6.8205299915       -0.3985854537       40.5720609834
  H         7.3070029820        0.4142043985       40.7558032145
  H         6.1781023437       -0.6070894955       41.2985854041
  O        10.9923062840       -6.0926024307       45.4646371071
  H        10.3254922543       -5.7199255755       46.1410935842
  H        10.6659219341       -7.0934451254       45.3724061129
  O        14.3538797512        3.8051498657       30.3170802062
  H        15.1520129967        3.3387789179       29.8966743280
  H        14.3758469084        4.5844027724       29.6969720965
  O         5.4293263418        6.7793028388       41.3786300501
  H         6.2551076609        6.8535397783       40.7820727306
  H         4.9556726302        5.9859576905       41.0647015461
  O        13.9724287234        0.2533942284       45.4312004725
  H        13.6876872606        0.7024586967       46.2939091610
  H        14.5475158112       -0.4588454126       45.7377936066
  O         6.7067501812       -9.0692263476       30.9840270185
  H         7.2368313597       -8.5061573218       30.3593799422
  H         6.5387762270       -8.5916626686       31.8710433143
  O         4.2765622288        2.3317263748       41.3782329150
  H         4.7021432418        2.7745497513       40.6090904353
  H         4.7056544324        2.5582490742       42.2470965437
  O        13.1737178805       -3.8445931474       30.1719659484
  H        13.6563171947       -4.0266859422       31.0023091207
  H        13.8091233636       -3.2500074980       29.7497224463
  O        12.0734432526       -8.5823998715       49.4790004399
  H        12.0266457885       -9.1044176142       48.6883913808
  H        12.4294704945       -9.2652399945       50.1939039342
  O        14.2150385916       -3.3626761735       36.0238683907
  H        13.3452582262       -3.4615710734       35.6037306419
  H        14.0316785301       -2.6389522265       36.7049098303
  O         7.6029928836       -5.1020331083       39.7361250268
  H         8.4861311839       -5.4617141059       39.5620596530
  H         7.8127464390       -4.1112347035       39.7102176923
  O         4.0305005600      -10.4968085126       44.1776712274
  H         3.1744094547      -10.8162686888       44.5792735574
  H         4.5001685286      -10.0331063801       44.8675076589
  O         2.6114818253       -1.9241886219       41.5595287157
  H         2.1840883400       -1.0381476213       41.3197974409
  H         2.9521129162       -2.2027560441       40.6714777726
  O         3.0963098587       -1.7347919763       46.4231987868
  H         4.0464155792       -1.9747339168       46.3656545743
  H         2.8180385073       -2.2452282038       47.2319505984
  O        14.0068895711       -6.6554221514       36.6688971580
  H        13.8650583052       -6.1780242877       35.8105135435
  H        13.2767707292       -7.3714790540       36.6422744882
  O         6.1599678417        1.2893720163       34.2729065235
  H         6.0521300492        0.6971666254       35.1255562328
  H         5.2988387585        1.8663651439       34.2941455460
  O        17.2481401954       -0.2401743268       38.4911416322
  H        17.7919515340       -0.5378401287       37.7213268411
  H        17.8919655493       -0.2657663053       39.2308087151
  O        16.5471095219        3.3296413815       34.5515817386
  H        15.5705621576        3.3873261951       34.3271941964
  H        16.4239222360        3.4054713722       35.5574478833
  O        12.3446653956       -7.6037496612       39.8108472177
  H        12.7818257906       -6.9122165685       40.3812210988
  H        11.6023980704       -7.2582002069       39.3207923709
  O        13.6283396436       -1.1811432054       37.5074850725
  H        14.3701643227       -0.5546713744       37.5286500913
  H        13.3146517276       -1.5321084932       38.4086024436
  O        13.5347847190       -5.9914327425       46.3976145558
  H        13.9564723880       -5.3109130617       45.8578396344
  H        12.5823538153       -5.9331510749       46.2113052322
  O        18.1284211156       -5.6141758032       37.8248517785
  H        18.8369692811       -5.4817743672       38.4923911528
  H        18.6602497829       -5.7653813472       37.0425558073
  O        -2.1988493909       -0.6990742767       29.2582796493
  H        -2.9530170154       -0.1934259259       29.6125525227
  H        -1.4517288717       -0.5232647811       29.9077543253
  O        12.4748641131        2.0662928571       46.9979960817
  H        13.0706940617        2.6756802569       46.5482338525
  H        11.7120130392        2.0244682510       46.3647680242
  O        10.2653916614        1.1927908155       51.9672627160
  H        10.2865602059        0.7671500069       52.8434835996
  H         9.4797974661        1.8587952726       52.0799456257
  O         9.2119356638        4.1394342016       36.9260992721
  H         8.9258841742        3.4864511439       36.2378612704
  H        10.2416444864        4.0751568042       36.9591513980
  O        16.3572521994        3.7711021085       37.2756317239
  H        15.8945802807        2.9602427154       37.6461299684
  H        15.7163797361        4.4941709496       37.1215594937
  O        21.4696514399       -0.6170745556       37.5834903400
  H        21.9054084888       -0.1779976274       38.4194324698
  H        22.1413085025       -0.3455128486       36.8452409166
  O        14.4222162562        0.7401793512       41.1145981500
  H        13.8131214392        1.0516924033       40.4209009542
  H        15.3030614688        1.2003048701       41.1773098942
  O        14.7998075462       -4.1155818167       44.8926138959
  H        15.5773085532       -4.5986553875       44.6569499007
  H        15.1770750048       -3.2272813412       45.2774842643
  O         5.4766564720        3.7172736502       39.4122412314
  H         6.4031221291        3.6085334921       39.1777228943
  H         4.9595532789        3.7244483126       38.5773693088
  O        -0.2132648496        0.4789674632       43.0937482137
  H         0.5967739865        0.6422323507       42.5418350275
  H         0.2598938245        0.4963117950       43.9698400116
  O        18.0987047971       -2.5127512743       34.3563225601
  H        17.6120657327       -3.2178110212       34.9211503528
  H        18.6713948192       -3.0106117850       33.8520142836
  O        10.5229191892       -3.6875071560       41.6549579242
  H        10.2437175141       -2.7635960064       41.5787940357
  H        11.4607650753       -3.5993240389       42.0157673571
  O         2.9496165997        1.4527100874       37.9900930744
  H         2.2287561077        1.5152915663       38.6639655855
  H         3.6946333674        0.9529259365       38.4328677410
  O         8.5954689015        2.2813344640       47.5801301917
  H         8.9823396170        1.3801952747       47.2637931407
  H         7.6525844656        2.3499347918       47.2569316761
  O        12.8103477104        2.2873034716       39.2858079001
  H        11.9186168832        1.7708734999       39.4298702310
  H        12.6836466351        3.1935148532       39.6880842754
  O         9.2720873391       -4.5536761763       47.1673012226
  H         8.7995248854       -4.3039904794       46.3472849872
  H         8.6621290704       -5.2117661266       47.5595292272
  O         4.8284980581       -5.1968881860       44.0782747961
  H         5.5701016314       -4.6160513995       44.3727013801
  H         4.9302096330       -5.2205763563       43.0910156417
  O         1.5724396703       -6.1752716754       41.3339077104
  H         1.1771206361       -5.2857207527       41.6527281176
  H         2.1953897085       -5.9719926897       40.6180776628
  O        11.3208488877        3.1231358867       42.7060938995
  H        11.6339879990        2.2139228755       42.8081551549
  H        12.1714246087        3.5916394841       42.5013488594
  O        10.0773363225        0.5992750780       45.8144423494
  H        10.4141521276       -0.3127463401       45.6542821055
  H         9.5875199275        0.8384348741       45.0179169061
  O        21.7138889690       -5.1017415735       30.9567151254
  H        22.1549203153       -4.5003009178       30.2726179097
  H        22.3729792926       -5.4099982682       31.6243527362
  O         7.4098912181       -3.9433267187       32.5500035340
  H         8.1672223734       -4.3890904098       32.0208777025
  H         7.5910032524       -2.9763751717       32.6087008677
  O         7.5185508481       -6.5050460524       35.8372727838
  H         8.1063151619       -7.2207754571       36.2577297453
  H         6.9025380019       -6.7822304619       35.1308337180
  N        12.4217457949       -1.8457975045       39.8807415637
  H        11.5045639837       -1.5225809160       40.2494080557
  H        12.3310194617       -2.8851304764       39.6770452402
  H        13.1916174558       -1.8610219131       40.5455911736
