     193
 CELL 12.4294 12.4294 12.4294 90.0 90.0 90.0 i =    80120, time =    40060.000, E =     -1096.5568788589
  O         6.3144493580       -1.1305974234       39.2909821120
  H         5.4883615786       -1.0395207774       38.8076435616
  H         6.1364228060       -1.0558138911       40.3158578452
  O         6.2302327003       -7.3429393693       36.8231944454
  H         6.7676496122       -8.0570923210       36.5169685218
  H         6.7794922500       -6.4736449986       37.0347701874
  O        10.1169185787       -3.5339867820       38.8686862977
  H        10.7657873824       -3.9965895326       38.3164027463
  H         9.6134265282       -4.1926372130       39.4358295859
  O         8.3889905015        0.2084596455       38.0990948565
  H         7.4876891633       -0.0694549827       38.3987850207
  H         8.2129078430        1.1672166450       37.7822772928
  O        -3.3607131769       -6.4790980532       34.9672029535
  H        -3.2098108410       -5.6574592644       35.4914072316
  H        -2.9211885837       -6.2677811920       34.0126385703
  O        15.4275204020       -3.8216194449       45.9107776544
  H        14.5260212345       -3.9207216379       45.4178113203
  H        15.9260246460       -4.7148925358       45.7219276728
  O         5.9293028169       -1.0979988472       29.5438090256
  H         5.0308431492       -0.8065665708       29.7892172553
  H         6.4663347387       -1.0229815187       30.3729197120
  O        13.1043705947        3.2834349488       40.6331339850
  H        12.8100103133        4.2260957592       40.8017644285
  H        13.5270978184        3.4208455940       39.6935567486
  O         4.5119585753       -7.2295131819       30.4592766678
  H         3.9754019691       -6.6727721587       29.8822552774
  H         3.9410081200       -8.0553520234       30.4391622274
  O         9.4753491576       -2.3377155674       29.7321266789
  H         9.7221633355       -1.8930994177       28.8694853475
  H         9.1179932428       -3.2441266326       29.5788490637
  O         9.7541885827       -5.9367035914       32.5464966853
  H        10.6311183023       -6.2343851056       32.1070130558
  H         9.0150563454       -6.1937931250       31.9687399921
  O         1.5034324258        5.3163879520       33.6942966508
  H         2.3814700562        5.7628203109       33.5649102471
  H         1.5574179877        4.4012260453       33.3793808541
  O        -2.4618113551        1.2119756245       42.1285325731
  H        -2.2208266364        1.4458337126       41.1964312057
  H        -1.9768300798        0.4310490613       42.3222291697
  O         7.5301383885       -2.8023083603       33.9197582685
  H         7.6565523596       -2.5500880252       32.9615078111
  H         7.0934614669       -2.0054892624       34.2559382847
  O         6.4333985558        1.9248110091       34.6201947921
  H         5.7401736745        2.6493484026       34.4899890900
  H         7.2855235124        2.2453153690       34.2694379377
  O        16.6446824715       -1.4129934729       37.0425647969
  H        16.0667243694       -0.7612344836       37.4785324285
  H        16.0321626514       -2.1409735978       36.7754245833
  O        13.3328679298       -4.1469736742       31.8899425947
  H        13.3222868668       -3.7235139655       31.0011539987
  H        13.1219969809       -5.1386528455       31.6222755493
  O         8.3290613205        3.4416303018       39.1458553105
  H         7.7858634962        3.2465751161       38.3818997564
  H         8.0426909330        2.8856414120       39.8562873325
  O         5.4739833422       -0.6999405212       34.8045633975
  H         5.8070458211        0.2238977649       34.7131530494
  H         4.9334030858       -0.7993818754       35.7172775055
  O         9.3394482323       -6.4276542870       39.4540755578
  H         8.8323345933       -6.3066470427       40.2805829159
  H         9.0810635334       -7.3437012458       39.1855210992
  O        14.3021597424        3.7769590701       25.4422839573
  H        14.4002050181        2.9647965267       25.0004836223
  H        13.8869781424        4.4266577859       24.8060715338
  O         4.8064188015        4.5076934695       39.0426188177
  H         5.3735123554        4.7608206936       38.3050006362
  H         3.9120597763        4.3032125929       38.6252847947
  O        12.6788381108       -0.6895511170       39.3285940064
  H        11.7508464470       -0.3686241183       39.5952181665
  H        13.0687275154       -1.0941350501       40.1166674402
  O         4.7765548880      -10.5883299781       27.8321337601
  H         5.0327646181       -9.6676067319       27.5355069013
  H         4.6158508588      -10.3909402775       28.7978807897
  O         3.3230698252        1.7129774106       35.8914074055
  H         3.5353840009        2.5995706121       35.5517787727
  H         3.3384665474        1.7358471472       36.8797117957
  O        12.9514854459       -4.6442983976       24.8453141379
  H        13.2412568964       -4.6179482986       25.7564342508
  H        13.6813290917       -4.2444077004       24.2900780825
  O        11.1013660264       -9.6293118123       44.0725578544
  H        10.7679351962      -10.1788228354       43.3445450470
  H        10.3023933214       -9.5489872171       44.6486602340
  O        11.6079089547       -0.7190099361       30.5819476399
  H        10.9803009979       -1.4584904909       30.5982454499
  H        11.7456086151       -0.5132686087       31.5612830143
  O         6.3818328937       -5.3580591511       34.3916481063
  H         7.1882610279       -5.9013207713       34.5252770666
  H         6.7160610508       -4.4493559348       34.4279876774
  O         2.6366515176      -11.6477135676       38.5558780255
  H         1.6884292524      -11.7010585011       38.9270019709
  H         3.2107784771      -11.2776559749       39.2827346302
  O         2.3305163414       -2.9166928775       36.0250631419
  H         1.6504700076       -2.1940427511       36.0126322838
  H         2.7290922068       -3.0950579640       35.1023238630
  O         1.3121256956       -1.9529949603       41.8597384656
  H         2.1461819691       -1.4018640658       41.9296299811
  H         0.5487599237       -1.4307359465       42.2813813700
  O        11.8642223478       -6.8270673741       31.3865154620
  H        11.6252687368       -6.5551799503       30.4400644870
  H        11.8218795698       -7.7731324131       31.5189200806
  O         3.4931643760       -0.2367471331       30.2877713208
  H         3.5248502844       -0.5498887556       31.2118604652
  H         3.3981573649        0.7064380212       30.3327872346
  O        16.0827682041       -1.2621039883       32.8758236277
  H        15.8145448671       -2.2272641103       32.9841131228
  H        16.8717826326       -1.1318962042       33.5134761962
  O        15.4259323085        2.5997820333       30.1181354930
  H        14.7495746317        2.7059569028       29.3995249235
  H        14.8836684279        2.9851820864       30.7813377799
  O        10.2734420058       -8.6580464285       35.8797199489
  H        11.1546066183       -8.2372676555       36.1729201458
  H         9.7698830452       -7.7720018204       35.6430189695
  O        11.8178106264       -0.6022168190       33.2706112902
  H        12.6482116404       -0.3490422216       33.7289878100
  H        11.6562398241       -1.5835915512       33.5312202593
  O        11.8976211554       -6.4185621264       41.1048371969
  H        12.3876895181       -5.5981939046       40.7724231640
  H        10.9928336280       -6.2903049387       40.7204946080
  O        16.6622765848       -6.0889203708       33.1023788182
  H        17.5641364169       -5.8663085495       33.4273680043
  H        16.6741936411       -6.3938995343       32.1658019977
  O        -2.6591972450       -1.4230547099       23.6969904376
  H        -3.2535949578       -0.8645319060       24.3427081583
  H        -1.7218702328       -1.3622813417       23.9958459046
  O        10.8584448373        1.9266101491       39.5080194894
  H        11.5909308827        2.5745348930       39.8092497690
  H        10.1178265899        2.4947384584       39.1859891432
  O         9.3325004380        0.0013511077       46.1329746829
  H        10.3029515764        0.0458190788       45.8631244112
  H         9.4666795038       -0.6284377102       46.9751247410
  O         6.8660453390        3.2071346237       31.0388337084
  H         6.9382731652        2.7994665074       30.1372768566
  H         7.5361089277        2.8547106951       31.6360683359
  O        13.6711190932        2.9615918245       32.5737568671
  H        13.7827029298        2.0542241930       32.8914187430
  H        12.6956798456        2.9364394133       32.2937636237
  O        20.3283084835       -1.2569941376       31.5538982295
  H        20.7998033292       -0.6161743313       32.0928414851
  H        21.0383388538       -1.5013457933       30.9107887969
  O        12.8359322304        1.4885654354       36.5091987444
  H        11.9991153243        1.8576487853       36.0973712613
  H        13.4568505690        1.5763350220       35.7340141844
  O        13.5181915711       -4.3368799792       40.2759845328
  H        14.3716032982       -4.8428477189       40.2262466584
  H        13.7596390733       -3.5482420713       40.8200797188
  O         4.6285858289        4.1050536518       34.8296805542
  H         5.0758205694        4.5412448797       35.5844220661
  H         4.4131791406        4.8787842266       34.1689041785
  O         0.1006673977       -1.1990492833       36.6195787140
  H         0.0774303616       -0.1767483055       36.5334473338
  H         0.2136765321       -1.2790425020       37.5580120422
  O        17.6749263683       -3.9684133368       30.9367009208
  H        16.7870091172       -4.0737134999       30.5408180099
  H        18.1106410946       -3.2600570728       30.4240904149
  O         8.9410025787       -3.9734866785       35.8409417510
  H         8.6030987320       -3.4570457273       35.0144950238
  H         9.4104249589       -3.2749040715       36.3719631555
  O         1.7924373288        0.4919493161       33.8779165537
  H         2.4102806264        0.6241073660       34.6535424734
  H         2.3180176921       -0.1385150524       33.3529747797
  O         7.3505237983        1.6281229668       41.2857395244
  H         8.1377770528        1.1851458344       41.6501732957
  H         6.6676399946        0.9948105318       41.1541979582
  O         9.0639942587        2.7983248036       33.5906453897
  H         9.1110198655        1.7635329557       33.6625295302
  H         9.6251448320        3.2129177121       34.3167588339
  O         8.3453086852       -4.8424737279       41.2368717550
  H         7.5596007926       -4.4726453344       40.8799104609
  H         7.9602538972       -5.3242804668       41.9736639559
  O         3.8384355293       -5.5140738276       40.7358335988
  H         4.4632556910       -4.7575586108       40.4391942123
  H         4.1234786496       -6.3831232794       40.4217401350
  O         0.1318463189       -7.2132794835       36.0460502339
  H         0.4367161382       -6.3459397935       36.4805176403
  H         0.6981646106       -7.2687534547       35.1793673939
  O         7.8322458558        2.4737809130       36.7726126952
  H         7.2790059089        2.0619200533       36.0571051420
  H         8.7332303335        2.6991733071       36.3737110327
  O        10.0844732954       -0.9429597650       39.7647866739
  H        10.2574405442       -1.8192502103       39.2639119178
  H         9.4163975492       -0.3999465788       39.2972165258
  O        19.8077450217       -5.2192153193       25.3262730395
  H        20.2670566589       -4.5401957510       24.7475586879
  H        20.5488196551       -5.6028979731       25.9287781204
  O         5.9489776906       -4.0153337330       27.3407147393
  H         6.3023621750       -4.4672571665       26.4728310140
  H         5.8347549415       -3.0562490197       27.0916566007
  O         7.3802197596       -6.2255907455       31.0286209984
  H         7.1631869700       -7.1677802094       30.8335522502
  H         6.5779824610       -5.6995791792       31.0480528475
  N        11.4769832913       -3.2695395892       34.1942443875
  H        12.1168836791       -3.7533693838       33.5591337924
  H        12.0464164582       -3.3099664148       35.0288642562
  H        10.6397352860       -3.8503644458       34.3162086747
