     193
 CELL 12.4294 12.4294 12.4294 90.0 90.0 90.0 i =    28120, time =    14060.000, E =     -1096.4987861369
  O        -2.5336736347        1.1259400384       12.0017182723
  H        -2.3605597478        0.8464028043       11.0573365094
  H        -3.3204907823        1.7694448965       11.8307163499
  O        -1.4366471349       -8.3765328075        6.7321312384
  H        -0.6001605498       -8.9887399562        6.9350143215
  H        -1.6749201109       -7.9953101223        7.6303791819
  O        -1.4559344576       -7.0154221993        9.4147145440
  H        -1.3096105450       -7.6308390079       10.1246072739
  H        -2.3250995138       -6.5932623240        9.4111369501
  O        -2.6578410723        0.6429102497        9.3497518333
  H        -1.6954221010        0.7092995022        8.9942875822
  H        -2.9109114710       -0.2183488070        8.9099830588
  O       -12.0737610099       -5.0676364998        6.0044028821
  H       -12.7648069115       -4.8079891429        6.5948893957
  H       -11.9544468415       -4.2349535150        5.3809853024
  O         3.7559561081       -6.1451156130       13.9399711472
  H         3.6622289667       -5.2577901314       13.4690902629
  H         2.8393640768       -6.4317566546       14.2930107676
  O        -4.9335653709       -0.7025201967        0.5590828287
  H        -5.4268425962        0.0562628968        0.9169331097
  H        -4.7111809852       -0.3109260328       -0.3021192115
  O         2.8336680991        2.5303920251       11.2076742669
  H         2.0227594064        2.4905192453       11.7651545482
  H         2.6901748894        3.1754338342       10.4869357536
  O        -4.5063389653       -7.8478692572       -1.5203543773
  H        -4.2799149293       -7.1839575257       -0.7787191811
  H        -5.5152957983       -7.7634768900       -1.5225654917
  O        -2.2760872614       -1.4285404807        1.7843884920
  H        -3.1516990187       -0.9829373184        1.5659183039
  H        -1.9829346219       -1.7727560588        0.9058281725
  O         0.4513828236       -4.5466424595        1.4352343223
  H         1.1947483024       -4.1383467966        1.9898411826
  H        -0.1152937239       -4.9419028027        2.1409385106
  O       -10.7689776466        4.9087968398        3.0679820416
  H       -10.2067180915        4.1027347521        3.0363743543
  H       -11.5392910805        4.7556725771        3.7323253586
  O       -11.0202568421       -2.3097194941       10.9813883607
  H       -10.5791287096       -1.4570039989       10.5381321268
  H       -11.2373379804       -2.9016448285       10.2444273177
  O        -2.5945317677       -3.4061740510        3.6232624668
  H        -2.7144814470       -2.8445748364        2.7859400273
  H        -3.5407618990       -3.4349028290        3.9756670383
  O        -2.2093633713        0.3398454912        4.3069647360
  H        -2.7082070794        1.1864343847        4.6611825288
  H        -1.7301354582        0.5580686060        3.4747634726
  O         6.3673756888       -0.2432008359        6.9476193962
  H         6.7387119762       -0.2686894582        6.0520145590
  H         6.9821994276       -0.7365050296        7.5039285544
  O         3.3979246328       -3.4349127888        0.2077619723
  H         4.3262745814       -3.1091879219        0.0628173140
  H         2.7339061700       -3.1473987272       -0.5690091595
  O         0.1959612387        1.7046892851        8.9952047282
  H         0.6587197132        0.9191296267        9.3483490446
  H         0.0712489924        2.2971312138        9.7414282041
  O        -0.8750009677       -0.6600765419        6.4677719167
  H        -1.2950932909       -0.2651300819        5.6826858701
  H         0.0103094741       -0.7216838107        6.1156624497
  O        -3.8896129793       -5.7193531659        8.7802282109
  H        -3.8236358700       -4.7918854217        9.1750261756
  H        -4.4578220506       -6.2771594437        9.4018130103
  O         3.0636316649        4.1084283287       -3.2256714552
  H         3.2546420372        3.3774978201       -3.8352162730
  H         2.3790703831        4.6354477765       -3.6933468490
  O        -4.4641864112        1.8311136668        7.8831073115
  H        -5.3156101681        1.2788181759        7.8384760850
  H        -3.8646808252        1.4639964027        8.5306309374
  O         5.9139024961        0.7960729865        9.8993952396
  H         6.1330219819        1.2047102897       10.7669684663
  H         5.8695923853       -0.1814831225        9.9619582582
  O        -4.0966280500       -6.0248261550        0.5007636879
  H        -4.8618805046       -5.8845117112        1.0946317583
  H        -3.4042822278       -6.0168935093        1.1770050576
  O        -8.3234527757        1.5999211954        5.1697308981
  H        -8.4903213507        2.2607186250        4.4459252467
  H        -7.9761303018        2.0210265988        5.9684489917
  O         5.1268282194       -6.5316147530       -2.8639879781
  H         4.3447092888       -7.0399730765       -2.5964107047
  H         5.6033613217       -7.0518192548       -3.5432538173
  O         2.5346979485      -12.4411468054        9.8022975600
  H         2.5750155120      -11.6041244491       10.2718353382
  H         3.3444007371      -12.6084751444        9.2160944500
  O         0.6221531944       -2.6256791619        4.4783265604
  H        -0.3311522105       -2.4084210070        4.1954973381
  H         1.2094799826       -2.3250993659        3.7183553738
  O        -6.3012880925       -7.3419806800        5.2179640814
  H        -5.8099961022       -6.6037952998        5.6356887488
  H        -5.6661111159       -7.5475240461        4.4800996247
  O        -5.1964384191      -10.1527942984       11.9514137191
  H        -5.7202742674       -9.8290316370       12.7005049500
  H        -4.8052314107       -9.2963226631       11.5420414157
  O        -5.6205614035       -5.0017932948        6.4775818668
  H        -4.8358984133       -5.0707931823        7.0702688248
  H        -6.3822450871       -4.7087921436        7.0930544937
  O        -6.5674063515       -2.2904000312        9.6362444624
  H        -7.1379298254       -2.7868899287        8.9703456566
  H        -6.1858664001       -3.1072625400       10.1424448733
  O        -2.4924887267       -8.3494213947        1.3162656306
  H        -1.9633185677       -7.5257310435        1.4531433853
  H        -1.9480162880       -9.1240409307        1.5541036589
  O        -4.7290006648       -0.5751070057        4.5059189864
  H        -5.2309957023       -0.0841956409        3.8323423672
  H        -3.7722581476       -0.2972264213        4.3710033234
  O         6.4727005997       -5.0012131354        2.4212355457
  H         5.6169202697       -5.4344023117        2.6700239398
  H         6.8051027551       -4.4340025163        3.1507978123
  O         4.6470207914        3.8720854850        0.2235854681
  H         4.0542395994        3.4008394083       -0.4972991981
  H         4.2734276913        4.7517840560        0.4684585336
  O         0.1136173975       -4.4634517279        8.9332657733
  H        -0.4448557233       -5.2451518296        9.2511862969
  H         0.8879555074       -5.0062245842        8.7246071613
  O         2.3327989519       -2.0096361292        2.4762129218
  H         2.6817196162       -2.4890518982        1.6478178174
  H         3.1483236336       -1.9859597640        3.0573004838
  O        -1.0634243809       -3.2420233493       12.2643993465
  H        -0.4476621227       -2.6657616433       11.7462645994
  H        -0.4543192794       -3.5765803522       13.0319662432
  O         3.6778426501       -5.6914167408        5.1623189233
  H         4.5765913426       -6.0683573947        5.0958128604
  H         3.1875756304       -6.1228133279        4.4290936176
  O        -7.8247479050       -4.2516608180       -4.4824121899
  H        -8.7416106054       -3.9447630006       -4.7583876007
  H        -7.8953398423       -4.9071021368       -3.7132271527
  O         0.5272710209        5.0378290438       12.9836206264
  H         0.4804252080        6.0046755397       12.8624842706
  H         0.8044704776        4.8520408293       13.9280549005
  O        -1.1427188891        1.4809014158       14.4945648495
  H        -1.7006064186        1.0309188081       13.8488637069
  H        -0.1779880295        1.4997219105       14.1987325744
  O        -4.7412122081        3.9614137254        3.1955879368
  H        -4.1352901458        4.2352471352        2.4495781892
  H        -4.2018109525        3.5181159421        3.8566582054
  O         3.2545815112        2.7063914528        2.3716034903
  H         2.7447346844        1.8360147988        2.3883323821
  H         3.6922862717        2.8891921274        1.4558220132
  O         6.0144407114        1.0038313937        2.4386282693
  H         5.1274512291        1.2477155243        2.7875667933
  H         6.4700142769        1.8625146725        2.2554339821
  O         1.3760640492        0.6847006813        2.8498006722
  H         1.6428169131       -0.1938163623        2.5943390677
  H         1.3882369488        0.4635485891        3.7832427702
  O         3.6753497845       -0.8380160030        7.5795512907
  H         3.1213350702       -0.2600214983        6.9836050860
  H         4.6455709147       -0.5967859715        7.3065446482
  O        -3.3412379605        2.5954683819        5.4731672337
  H        -2.7111378567        3.0663389856        6.0652583885
  H        -3.9658267052        2.2496054798        6.1657749062
  O       -10.7433735213        0.5132997901        5.7439744858
  H        -9.9365457964        0.9613322262        5.4310899805
  H       -11.0262570649        1.3029913448        6.2781762781
  O         6.1506936422       -3.2442673182        0.1458657833
  H         6.3319847298       -3.8295165146        0.9334973169
  H         6.7258007840       -2.4698278817        0.1709738544
  O        -1.9040739155       -3.2943195589        6.4142112130
  H        -1.4389504838       -2.4046685289        6.4327149774
  H        -2.0898462191       -3.3981932227        5.4587345435
  O        -5.1835419962       -3.2984533731        4.3583425347
  H        -4.9462800365       -2.3971254998        4.5894229759
  H        -5.2226366568       -3.8359514350        5.1751927221
  O        -0.2086225736        2.9369602872       11.3098317532
  H         0.0595704058        3.8331230003       11.6974672004
  H        -1.0563861159        2.5908037420       11.7566158812
  O        -0.5407013596        5.1961231144        4.5354797747
  H        -0.2285088817        6.0562633247        5.0550014646
  H        -0.9737623693        4.7005273705        5.2336797093
  O        -3.4984141335       -3.7884312948       10.7719077271
  H        -2.6183650776       -3.8872635648       11.2261648815
  H        -4.0140395790       -4.3340850233       11.4155826936
  O        -3.8486528766       -1.6977642172        8.3765858569
  H        -3.1663423250       -2.2464859759        7.9018936447
  H        -4.2200652582       -2.2975228507        9.0637454982
  O       -10.4474504678       -6.9005261645        7.0529473741
  H       -11.1869023604       -6.2516791284        6.8509464969
  H        -9.6838287859       -6.5922215821        6.5268489677
  O         1.1070929940        2.8203998525        6.9530887988
  H         1.0617989343        2.7396990156        7.9568317786
  H         1.4690045999        3.6595511788        6.6884480887
  O         2.3117347631       -3.1213880776        7.7882945353
  H         2.7940374997       -2.2689097980        7.7895356320
  H         1.7406509853       -3.1143718082        7.0074173675
  O         4.4471273132      -10.1791461022       -4.5404719255
  H         5.1995161826       -9.5433328539       -4.3120584721
  H         4.6797878701      -10.9110530241       -3.9553736500
  O        -6.0503771765       -8.3247715153       -4.6640165492
  H        -6.2142420095       -8.1758977897       -5.5934911231
  H        -5.2319125721       -8.8604269900       -4.5854791285
  O        -1.7689298177       -5.9323366652        2.5279907412
  H        -1.3469554508       -6.5123246828        3.1374014328
  H        -2.0656428924       -5.2051614334        3.1684758731
  N         4.2327379872       -1.6517665302        4.7002257263
  H         4.2552390992       -0.6899037856        4.9952625828
  H         4.1976189167       -2.2293116123        5.5864873174
  H         5.0256546956       -1.9300818468        4.1311561558
