     193
 CELL 12.4294 12.4294 12.4294 90.0 90.0 90.0 i =    43320, time =    21660.000, E =     -1096.5505260510
  O        -0.9931975261        1.0700423559       21.2007248693
  H        -0.8461481235        0.6734162524       20.2408152770
  H        -1.8417338233        1.6115771480       21.1262940992
  O         2.1306098680       -7.7830554019       15.6412913896
  H         2.7106152550       -8.5274057637       15.8952833930
  H         2.2006811156       -7.0445602840       16.2789945389
  O         1.8957468127       -6.0455126312       17.6548835234
  H         2.3346334877       -6.5114745724       18.4533421397
  H         0.9036520428       -6.1056626643       17.7746633741
  O        -0.6738734371        0.4172906472       18.6390112248
  H         0.2843908121        0.5440695628       18.4163910390
  H        -0.9072543910       -0.2201949751       17.9793960391
  O       -10.0092487089       -4.1017890593       13.8028074324
  H       -10.8021861606       -3.6865770728       14.1756032045
  H        -9.9559231069       -3.6600648011       12.8824603457
  O         6.2580851670       -5.9683823569       22.1525678635
  H         5.7533243056       -5.5933522874       21.4270184266
  H         5.5174208837       -6.2204789187       22.7212950942
  O        -1.5655989856       -0.8930809073       10.4189364599
  H        -2.1426010522       -0.6564540775       11.1976115454
  H        -1.5005054510       -0.0522985321        9.8738065238
  O         5.1860131360        4.0444681219       20.0211510011
  H         4.3011497206        4.5148104674       20.0241613037
  H         5.2458799177        3.5075826249       19.1637201926
  O        -2.6755378575       -7.2899782789        6.5074758371
  H        -2.1110742682       -7.4597063017        7.2349654779
  H        -3.4262439383       -6.7566533708        6.7806389611
  O         1.0978868233       -1.4558359310       10.0606711563
  H         0.2399270201       -0.9946695946       10.2057982133
  H         1.0076230025       -2.0836237923        9.2849480534
  O         1.9827746637       -5.3871226834        9.9938663915
  H         2.3170412529       -4.5952994719       10.4984785764
  H         1.0642962637       -5.4633831784       10.3568884079
  O        -7.8648324705        5.4584454254       11.4716737993
  H        -7.1595928903        5.0899540529       12.0843468287
  H        -8.6086735479        5.6233964135       12.0526179747
  O        -8.2984961823       -2.7611934876       18.5337676573
  H        -8.3254493027       -1.7839138559       18.9050082289
  H        -9.0091122159       -2.9086961785       17.7895058406
  O        -0.9931716917       -3.2437574610       11.9164693030
  H        -0.7961397223       -2.5256237933       11.2833810205
  H        -1.9065558507       -2.9447190260       12.2334525596
  O        -0.4067293520        1.4975564852       13.1723458601
  H        -0.4209412332        2.2432168989       13.8417001900
  H        -0.2038095135        1.8858387565       12.2785654868
  O         9.0442593731        0.5734542560       16.1163924712
  H         9.1751600980        1.1799463077       15.3545779153
  H         9.7303589862       -0.1997675280       16.0960504529
  O         5.3427407356       -4.4201823578        7.4906563885
  H         6.0005329550       -4.8949360032        6.8702557963
  H         4.7368163508       -3.8846530408        6.9107665327
  O         1.9120156060        1.3377828794       18.1897271591
  H         2.6189039921        0.8753465001       18.7293258599
  H         1.5404356546        2.1330054287       18.7345703795
  O         1.4076897168       -0.6421289060       13.8891240298
  H         0.9427276075        0.1359381695       13.6368253689
  H         2.4157411805       -0.4791463826       13.9648997311
  O        -0.6732459149       -5.6250473056       17.5819716933
  H        -0.7249740919       -4.7303976577       18.0413305867
  H        -1.4022928751       -6.1530696465       18.0225103319
  O         5.8537646072        3.4194968582        4.9551425124
  H         6.2688585786        2.5495017029        4.7405907474
  H         6.0648541903        4.1317901341        4.3324307540
  O        -2.2136877396        2.4677553107       17.7240712429
  H        -2.8297762733        1.8157441212       17.2819115957
  H        -1.5761571539        1.8075397826       18.1555464849
  O         6.9304829324        0.6074694557       20.0429206405
  H         7.8180580345        0.9918861940       20.2369157083
  H         6.9668462628       -0.2815702624       20.4930554170
  O        -1.5867060899       -7.4683936377        9.0528040649
  H        -1.3550627082       -6.6480016053        9.5512952513
  H        -1.0752976269       -8.1631925105        9.5933765861
  O        -2.9883762857        2.7757520323       14.2422809193
  H        -2.8219713930        3.5667710027       14.8530025883
  H        -3.3259279497        3.2859075240       13.5071157265
  O         6.9321430208       -6.1643055267        6.1941757575
  H         6.6762108189       -6.9591870799        6.6778777370
  H         7.0363210353       -6.4973475639        5.2916881835
  O         4.0668754148      -12.4152625147       19.6472450680
  H         3.6939404935      -12.5149357489       20.5375689731
  H         4.9076496376      -11.8925585562       19.7818476445
  O         2.5790377431       -3.0139639690       11.5311233126
  H         1.9489228105       -2.2828192396       11.1457719764
  H         3.5496183883       -2.6419212875       11.3978354478
  O        -3.1909928997       -6.3739580326       12.9859490692
  H        -2.5810715367       -6.1462068836       13.6990553172
  H        -2.9839036144       -5.6946337841       12.2917279911
  O        -3.3595890303      -10.1175750544       20.2420932486
  H        -3.9174466217       -9.4501440799       20.8024875627
  H        -3.1703440015       -9.6757447174       19.3974513630
  O        -4.0405163917       -3.4807748532       15.6140979834
  H        -4.9323652633       -3.0695981994       15.8624769780
  H        -3.3287824459       -2.7930335170       15.9252401480
  O        -5.5244387066       -2.1255103416       21.3602448023
  H        -5.9233317811       -2.8672644753       20.9082429304
  H        -4.6015318007       -2.2929224693       21.3094682065
  O         2.5371263022       -9.0923506107        9.4651996277
  H         3.4530319567       -8.7157638794        9.7429365203
  H         2.5567476666      -10.0572927839        9.7033369170
  O        -2.7954202885        0.1718925532       12.5575323292
  H        -3.3818431832        0.8745659180       12.3235223383
  H        -1.9597291259        0.6472637423       12.8927186625
  O         8.4191758242       -4.4699811129       10.6811012666
  H         7.5119547606       -4.8278634864       10.3460391085
  H         8.2319059240       -3.5955090131       11.2274834628
  O         7.2541789812        3.6625559558        9.3607284442
  H         6.3429764972        3.7997459312        8.8890924467
  H         7.5471233987        4.5652298376        9.5278765160
  O         4.2726856291       -4.8601477009       15.7297207069
  H         3.7260866743       -4.8705611605       16.5690496773
  H         3.6457861554       -4.4472890572       15.0596845758
  O         5.1907355997       -2.1249352698       11.3480478720
  H         5.8311135862       -2.1144491443       10.5769949001
  H         5.4669068174       -2.9072761328       11.8934385769
  O         1.3630858494       -3.5150380722       20.6879518753
  H         2.0397449366       -3.5430272492       19.9935198048
  H         1.5241502866       -4.3001321549       21.2903322688
  O         6.7342957506       -7.5074878499       13.1837235469
  H         7.6131399743       -7.0802323231       13.0623371001
  H         6.9771061461       -8.4765757626       13.0770088319
  O        -6.4527297125       -2.0176822423        3.6285739636
  H        -7.0338072529       -2.7570862846        3.8757631463
  H        -6.6879208373       -1.2815545506        4.2603342182
  O         3.0895190789        6.0770994062       20.1048112489
  H         3.8501994645        6.7457600578       20.0433115391
  H         2.6906315802        6.2040352665       21.0730561518
  O         3.1361386431        0.5242751809       22.2311006062
  H         2.4423090675       -0.0797026834       22.4561567873
  H         3.7779026776        0.5444692694       22.9786442845
  O        -0.3421953067        5.0436481154       12.9690530486
  H         0.6245453878        5.3120134041       12.8920661082
  H        -0.4360899464        4.4681361281       13.7810991119
  O         7.4883626992        2.4574021653       11.9688176289
  H         6.9062803268        1.6491909918       12.0154871501
  H         7.3628486467        2.7520461688       11.0680508770
  O        12.2836253578        3.2073737278       10.8488300249
  H        12.3231519088        3.9756173242       11.5032382526
  H        13.2415284559        3.3319191756       10.4870374839
  O         4.9288724293        0.6462218639       12.1481249184
  H         5.1895430534       -0.3226715920       11.9848095624
  H         4.4290405876        0.6648272125       12.9634186338
  O         6.1941781334        0.5602095210       17.3256791574
  H         6.2719666307        0.4880878714       18.2902994415
  H         7.1627861927        0.5275184920       17.0414356429
  O        -0.3408952678        3.3511050223       15.5064344303
  H         0.4376399624        3.7887792466       15.9303269394
  H        -0.8981217819        3.1713577727       16.3121096943
  O        -8.3595494115        0.2106803355       14.7280185042
  H        -7.6192662919       -0.3113539466       15.0175038929
  H        -8.3917899429        1.0451740034       15.3117969574
  O         9.9447144890       -2.9110709117        8.8032104938
  H         9.5891275089       -3.6234662565        9.4171269958
  H        10.2662064589       -2.2145629282        9.4574096022
  O         0.0441285663       -2.6289832543       14.9735948713
  H         0.3323576737       -1.7841998684       14.4479500054
  H        -0.4222983052       -3.2788209433       14.3427149948
  O        -3.6966497447       -2.3984353778       13.0375272264
  H        -3.6551146816       -1.4576447135       13.3396799986
  H        -4.0101428978       -2.8475338028       13.8660671291
  O         0.8732187461        3.2714093254       19.6093611841
  H         1.5319016085        3.4357080641       20.2968297867
  H         0.0935015513        3.0082653480       20.1150664012
  O         2.2661175829        5.7641781156       13.2674216135
  H         2.1814663235        6.7862658800       13.5040571072
  H         2.5927083580        5.3338064093       14.0836428773
  O        -1.1996715039       -3.0574733388       18.7415850894
  H        -0.2934532892       -2.8092645035       18.9773238081
  H        -1.6024884079       -2.9886587354       19.7030396911
  O        -1.8811132553       -1.6454752539       16.5039622490
  H        -1.1706558282       -2.0212974650       15.9000535732
  H        -1.7899285613       -2.1557899056       17.2990315488
  O        -6.2291802200       -6.6416716299       15.8144987021
  H        -7.0982948002       -6.0522860245       15.7967857353
  H        -6.1066928624       -6.8915931038       14.8494862005
  O         3.5879070506        2.4332930774       16.1785345807
  H         2.9521765380        1.9494229105       16.7449566919
  H         4.3154923778        2.8559551600       16.7419947760
  O         1.7019758900       -3.2370803616       17.2129738525
  H         1.1979698943       -2.9484748310       16.4177835303
  H         1.6221491611       -4.1793474153       17.4492975245
  O         9.3588212376       -7.5627636590        3.6076509204
  H         8.5019832509       -7.2004122522        3.7851601519
  H         9.5802539694       -7.9692945676        4.4740129916
  O        -1.8443577559       -5.1200213219        2.5795293269
  H        -2.7675590551       -5.0348755269        2.9089385941
  H        -1.2951000835       -5.3708755360        3.3351680541
  O        -0.5704676086       -5.6433625007       11.0883952807
  H        -0.8164718734       -6.3106317127       11.7884523784
  H        -0.8437263245       -4.7340799733       11.4672356884
  N         5.8346329766       -4.2107568570       12.7890483311
  H         5.4513071276       -3.8561740207       13.6516282809
  H         5.5028819927       -5.1710230509       12.7554329473
  H         6.8604278174       -4.3895125598       12.9048939758
