     193
 CELL 12.4294 12.4294 12.4294 90.0 90.0 90.0 i =    50520, time =    25260.000, E =     -1096.4840322046
  O         0.0939935601       -0.4856003667       23.1940265751
  H         1.0776856304       -0.3090037376       23.2461886662
  H        -0.4527664490        0.3552380367       23.3972932590
  O         1.5056252115       -8.4241570343       19.4362494176
  H         2.3449870395       -8.7960294452       19.7678348956
  H         1.1683097946       -7.7114171844       20.0126697797
  O         3.7662825194       -6.4873875600       22.4430277842
  H         4.0572275075       -6.6046618197       23.3456728150
  H         2.9059150711       -6.9540547943       22.3505635149
  O         2.8222345098        0.1826311498       22.8394190242
  H         3.4476184033        0.8691927612       23.1872947699
  H         2.9973914585        0.1270817249       21.8638468853
  O        -8.0120656478       -4.8501481970       18.7722430291
  H        -8.2568760870       -4.3725234066       19.5912116098
  H        -8.0313596624       -4.2206535796       18.0192909165
  O         7.3016154163       -6.1074765402       27.4513209604
  H         6.7095316431       -5.5001141308       27.0134134780
  H         6.7581185872       -6.7332477970       28.0453301087
  O        -0.2776033461       -1.4118103752       13.4224190880
  H        -1.0179679871       -0.8672233872       13.7140744833
  H        -0.1411208656       -1.1623789037       12.4867775106
  O         7.6832169429        4.4656086585       25.0590019959
  H         6.9528912552        5.0963134162       25.2786001054
  H         7.5503651811        4.1658562930       24.1576896567
  O        -2.0895938558       -6.8034194085       11.1067369029
  H        -1.3047680790       -6.8090831540       11.7460880520
  H        -2.8346319786       -7.1940392826       11.5993470449
  O         1.5233097461       -2.0041331549       14.9577644874
  H         0.8996830777       -1.5684506739       14.3103193575
  H         1.8216055253       -2.8017352146       14.4436657335
  O         3.4378619416       -4.4991296024       14.0200901534
  H         3.8097621805       -4.1637511036       14.8635906897
  H         2.5792578886       -4.8537967024       14.2153808580
  O        -6.1816078477        4.3763858684       16.7624017604
  H        -5.5860059234        4.1298792990       17.4969827494
  H        -7.1385392433        4.4765124160       17.1114795429
  O        -7.1158762116       -1.5559298905       22.1991588665
  H        -7.0610539747       -1.1958838617       23.1630925966
  H        -7.8890891941       -2.1979312652       22.2273722239
  O         0.3747950443       -3.4702327374       17.3113133217
  H         0.6597680842       -2.6454569271       16.8690939301
  H        -0.6155344385       -3.2895748799       17.3662049407
  O         0.3580652511        0.5887949803       16.1416384924
  H         0.3697125425        1.4968705006       16.4330512415
  H         0.7281033573        0.5890803172       15.2394281239
  O        12.9595442559        1.3621741613       20.2998036595
  H        12.5617657033        2.0402744601       19.7496896870
  H        12.1881542485        0.6421212331       20.3727552028
  O         7.0261936919       -3.6964986226       11.1803862093
  H         7.7907452191       -3.9736343817       10.6187493580
  H         6.6075701710       -2.9571895395       10.5724961919
  O         4.5312970764        2.3688039829       22.6557636567
  H         5.4253728702        2.7592008022       22.8243004899
  H         3.9281660519        3.0197597706       23.0878045501
  O         2.6424740276       -1.0565669071       17.6524170203
  H         1.8539162519       -0.5926851178       17.2229625964
  H         3.2940288443       -0.4270904213       18.0498908358
  O         1.0343913038       -6.9263936334       21.8889219778
  H         0.7458621971       -6.2846205360       22.5453187872
  H         0.8765877635       -7.8323847780       22.2551555267
  O         7.1980689510        3.4414316319       10.1433254996
  H         7.8163544585        2.6672571659        9.9455476021
  H         7.2783327133        4.0717469859        9.3562773481
  O         0.7917933371        3.0637251126       22.5908084700
  H         0.6348165844        2.4845175323       21.8331370774
  H         1.6378389610        2.7938402607       22.9344199222
  O         8.8999601679       -0.3464168753       25.3960655351
  H         9.2518593148       -0.2270785288       24.4862015066
  H         8.9850067739       -1.3183093504       25.7358494606
  O        -0.0415953216       -7.4783493942       12.6902412195
  H         0.2211949383       -6.8916396773       13.4002262652
  H        -0.5103636599       -8.1986962569       13.0773676870
  O        -2.7121942715        0.8954255986       19.4644792733
  H        -3.0709912421        1.7577390329       19.0538284321
  H        -3.1926538356        0.0943692747       19.2110670118
  O         9.0005694839       -4.7468989086        9.3725014184
  H         9.9180023825       -4.9719138732        9.3241193762
  H         8.8263507851       -3.9577043263        8.7907140267
  O         5.6737571536      -12.6972255105       24.8865315722
  H         5.1556462564      -13.1006923372       25.6130254809
  H         6.5797167512      -12.7251851360       25.3071685212
  O         4.0658053208       -3.2882453664       16.4090288242
  H         3.4574370810       -2.5530359241       16.5879207999
  H         5.0584750209       -2.9588667727       16.4725370253
  O        -1.5622152412       -7.4601507321       17.8119187078
  H        -1.3845336003       -7.0462751237       18.6703271726
  H        -1.8924145011       -6.7507777340       17.1673190425
  O        -1.3765048507      -10.5595945010       23.8276088888
  H        -1.9078656932      -10.2832699861       24.6380630830
  H        -0.6305762948       -9.8738366992       23.7336894504
  O        -3.4742809392       -2.3397632550       20.0078857358
  H        -4.1374020189       -1.6339485632       20.0746531354
  H        -2.5939032008       -2.0341459140       20.3143736416
  O        -3.9071087506       -2.8429171817       26.0172405267
  H        -4.4830040163       -3.2410396692       25.3318273192
  H        -3.1011228082       -3.3709798027       26.0552387072
  O         5.1693857575       -9.7837075611       13.6835746563
  H         6.0328219304       -9.3795979756       13.5338274249
  H         5.2258855166      -10.6989092974       13.3577362884
  O        -2.1689700637       -0.4051180614       15.4363352189
  H        -2.9408354601       -0.0359573247       14.9363549013
  H        -1.3832565760        0.2889845588       15.5308542192
  O         9.9194333438       -5.3745572671       16.0919190588
  H         9.0955661786       -5.5061609653       15.6539437640
  H         9.7871141438       -4.6796171311       16.7724896176
  O         9.9201710246        3.1176938642       13.7470129703
  H         9.2192686467        3.7583872716       13.4526909487
  H         9.5028974471        2.3975595520       14.2898744834
  O         4.9978448382       -6.9988632930       20.2076886114
  H         4.6716718439       -6.8258945503       21.1386213539
  H         4.7243871417       -6.3007448286       19.6151765492
  O         6.8469976691       -2.4049044228       16.3363104972
  H         7.4174956187       -2.6211895588       15.5746390657
  H         7.1207763124       -3.1386319762       16.9814111865
  O         2.7102374097       -2.8195797488       23.9778574587
  H         3.0855894820       -1.9371482546       23.8038471846
  H         3.2155322893       -3.0785569600       24.7429101956
  O         8.6281944778       -9.1751901259       18.2405925413
  H         9.3147368446       -8.4301018199       18.2342537763
  H         8.7850673549       -9.5401787885       17.3690824879
  O        -5.3982492446       -0.4668446125        7.9374746757
  H        -6.0628039279       -0.7387401877        8.5893370000
  H        -4.8255364195        0.1534654202        8.3886153631
  O         5.4434268439        6.5583753201       24.9072387063
  H         5.9794445968        7.1757987846       24.3623972928
  H         4.7520187218        7.1038762482       25.3576449227
  O         3.9263111850       -0.4559800311       26.9301345616
  H         3.2387524081       -1.0358168748       27.4101491905
  H         4.6406563044       -0.2463195301       27.6275738105
  O         2.1367278485        3.3650834070       14.9298822573
  H         3.0062282793        3.7284521245       15.2029678987
  H         1.5019112171        3.4868507944       15.7478455287
  O         7.9757570857        2.1913648480       15.7830693241
  H         7.3385445589        1.3468028945       15.8631963555
  H         7.4666666498        3.0749453065       15.7589634497
  O        14.2348811766        1.0951863826       13.4689727055
  H        14.3842300194        2.0495358345       13.7258781663
  H        14.9998937401        0.5439323146       13.7280833398
  O         6.1248741047        0.0858862058       16.1458697126
  H         6.5326927139       -0.8346858365       16.2543072990
  H         5.9730969168        0.3307883630       17.0856533133
  O         8.9246564371        1.2637945596       22.0909677238
  H         9.7929595681        1.4325757257       22.5856449204
  H         9.2917762766        1.2834053307       21.1661773283
  O         0.4405192629        3.3551886727       16.9314734356
  H         0.9166628259        3.1058161010       17.7229600944
  H        -0.1755648355        4.0316616811       17.1697807204
  O        -7.7857194200        0.4067754455       18.7029447916
  H        -7.1404754683        0.0974613677       19.4178296653
  H        -8.0788181241        1.3516825938       18.9021537319
  O        10.9209929690       -4.0937999572       13.6619339801
  H        11.0468565753       -4.5280984658       14.4659397352
  H        11.5110227581       -3.2992993165       13.6568036267
  O         1.4472053470       -2.7317930892       19.9849537969
  H         1.9349928584       -2.0450334536       19.4681620749
  H         1.2066143556       -3.3441563796       19.2142772093
  O        -2.1528046119       -2.5583406518       17.4645238123
  H        -2.5619661925       -2.0616926304       16.7240889726
  H        -2.5122532366       -2.3166106602       18.3583280295
  O         3.1429995857        3.9737404498       24.3886040181
  H         3.8241127095        3.5137796017       24.9689036087
  H         2.2856091225        3.7407722448       24.9116128782
  O         3.2915048233        4.9413274431       17.3219023161
  H         3.5688535043        5.8895402915       17.6691246675
  H         2.6418948828        4.6791091320       18.0684779282
  O        -0.0120819493       -4.0876378819       23.1470190997
  H         0.7747946291       -3.6551138839       23.3962038573
  H        -0.5222194520       -4.3519857699       23.9381806707
  O        -0.9734962436       -1.4414868466       20.7496539454
  H        -0.3067654343       -2.0079789339       20.2483008267
  H        -0.6971435913       -1.4581169549       21.6753438085
  O        -4.4945467127       -6.9606211597       20.6626725486
  H        -4.0029363106       -6.2641061918       21.1368336915
  H        -5.3857791543       -6.6075536521       20.4935571847
  O         3.7240573750        2.7938373795       19.8925605569
  H         3.8219234633        2.3810711454       20.7687420163
  H         4.2594656924        3.6209360879       19.9023780408
  O         3.7862168247       -3.9446429100       21.2752909985
  H         2.8476239804       -3.6350900906       21.2356565541
  H         3.6748597780       -4.8217872601       21.7415843954
  O        10.7411786628       -7.8320873040        8.4928644934
  H         9.8276531097       -7.6360115187        8.2216020428
  H        10.7996789578       -7.5568204404        9.4272098066
  O        -0.9594573786       -5.1051569428        8.2897637422
  H        -0.5074901514       -4.6729328436        8.9985547708
  H        -0.7770625068       -6.0637636284        8.3814364356
  O         1.0193656354       -5.6527129328       15.5224831810
  H         1.7717084124       -6.1756046919       16.0278614123
  H         0.7519981461       -4.9952653762       16.2539568663
  N         7.3179383631       -4.3269625741       18.1466386584
  H         6.3493145733       -4.5508202152       18.4471701701
  H         7.7004703634       -5.2655097072       18.0472959238
  H         7.7747262297       -3.8673870693       18.9658415934
