     193
 CELL 12.4294 12.4294 12.4294 90.0 90.0 90.0 i =    84920, time =    42460.000, E =     -1096.5414114353
  O         5.9011535186       -1.6615539951       41.9801278235
  H         5.3519194750       -1.4937967649       41.1806261828
  H         5.2988799944       -1.5000753525       42.7543048540
  O         7.1903520341       -7.7517854726       39.3901807360
  H         8.0578032845       -8.2866065327       39.4531503164
  H         7.5705423363       -6.8157305300       39.4501517507
  O        11.1360322174       -3.4192297446       41.1828100471
  H        12.0561377112       -3.8050708535       41.0108384691
  H        10.5529614908       -4.2048986163       41.5044451690
  O         8.3751684784       -0.4429390909       41.7705509178
  H         7.6274681792       -1.1214758722       41.9249388939
  H         7.9371955275        0.3617019294       42.1245979214
  O        -2.9614615529       -5.5394444584       37.0832536860
  H        -2.8775222500       -4.6705551388       37.5091056952
  H        -2.5972747304       -5.4031666151       36.1178779022
  O        15.2675729497       -3.3840151821       48.6643092469
  H        15.9148025361       -2.8490624479       48.0655387628
  H        15.3003505257       -4.3099477210       48.3767089962
  O         7.4632295760       -0.5101395222       32.3709525398
  H         7.7897287751       -0.7425712325       33.2852460179
  H         7.8914512820       -1.2499504080       31.8726326020
  O        14.5330741947        3.7632380704       43.1519098972
  H        14.1130280790        4.6048059477       43.3173809468
  H        14.9852830129        3.8990251581       42.3193655704
  O         5.9142595955       -8.2572089957       31.3839596760
  H         5.3831939487       -7.4512871287       31.0133739599
  H         5.5464340663       -8.6842165662       32.2122210623
  O        10.4768483515       -2.6800948832       33.1838185310
  H        10.5243225583       -2.1294498892       32.3841106506
  H         9.7954874572       -3.3651239313       33.0369732279
  O        10.3020169304       -5.4724264712       34.4700449092
  H        11.1583434454       -5.9799587166       34.2861170687
  H         9.6390649971       -6.0139709023       34.0466112271
  O         2.6175673265        6.3861201874       35.4790148043
  H         3.3517388279        5.7057136792       35.4552046523
  H         1.9155625273        5.9874387465       34.9161473368
  O        -1.2317498504        0.5437964539       45.4462402523
  H        -0.7928612301        0.4153495050       44.5712608382
  H        -0.7175318886       -0.1630910773       45.9560256500
  O         7.9089867719       -2.1822690771       37.1635370480
  H         8.2755118707       -1.6967183346       36.3458225745
  H         7.1550818678       -1.6610331926       37.4755244022
  O         6.8869509847        1.6984395329       36.1151619476
  H         6.4023846596        2.5658459653       36.2342547314
  H         7.6064557897        1.8418046101       35.4664985298
  O        17.1498633487       -0.8736778991       39.7348842987
  H        16.7150621420       -0.1045740540       40.1550100153
  H        16.3987664171       -1.4455935302       39.4583472240
  O        15.9363713993       -4.7334486889       32.7896031333
  H        15.0670019716       -4.5259937884       33.1981064235
  H        16.3495414964       -5.3569023618       33.3944366285
  O         9.9375731349        3.7438285086       42.5424817801
  H         9.5796671483        3.3385270388       41.6891567754
  H         9.5758834199        3.1532824324       43.2992091552
  O         5.6609458413       -0.3539952498       37.1192357061
  H         6.1172972019        0.4961389251       37.1125159614
  H         5.3179547397       -0.3619661484       38.0213882768
  O         9.9776444330       -6.0139234836       42.2568932093
  H         9.4640452096       -5.7755348608       43.1030073393
  H         9.8863216667       -6.9856059281       42.1771104589
  O        14.2476766684        4.4348571832       27.9016254237
  H        13.6035003901        3.8481062505       27.3686169920
  H        14.3285215301        5.1428070751       27.2512353859
  O         4.8602482625        4.4169390116       40.5282727897
  H         5.6064394424        4.4071574018       39.9143861891
  H         4.0967154764        3.9967339600       40.1095249549
  O        13.9252114832        0.2148846285       41.9325887092
  H        13.2786244381        0.9159956589       42.3642150796
  H        14.1641363299       -0.3652860327       42.6736333545
  O         6.4174933626      -10.9002100195       30.0204114696
  H         6.3243686759      -10.0100656993       30.3995057440
  H         5.9019769394      -11.5649886586       30.5107919374
  O         3.7742226913        1.9237046034       37.6469955607
  H         4.3354547849        2.6902365127       37.3905586672
  H         3.7601209108        1.9282537625       38.6235815258
  O        13.5671739759       -4.4123816917       27.5468825521
  H        14.1429320826       -4.5018645132       28.3793743545
  H        13.6970552988       -3.5920180978       27.0374686801
  O        12.2370684910       -9.0713155381       46.0013905238
  H        12.3521760750       -9.6707254746       45.2520745227
  H        11.6154960005       -9.4638457996       46.6193589311
  O        13.6111669815       -3.0278760519       33.2552332345
  H        12.6207797705       -2.9316785466       33.2034813738
  H        13.7810879784       -2.4774773201       34.0404405127
  O         6.6802953985       -4.8403112349       36.7944977825
  H         7.5557977742       -5.2602998385       36.8778929433
  H         6.9091008391       -3.8907438946       36.7396493725
  O         3.8787390717      -10.9478012082       40.8160745968
  H         3.0830077958      -11.1932409341       41.3343966499
  H         4.6335232048      -10.8289413346       41.4393141459
  O         2.0741985037       -2.1474966538       38.5469793562
  H         1.4236499566       -1.3666943969       38.5393392843
  H         2.3793569970       -2.4183062005       37.6302526109
  O         2.6207769474       -1.4154932824       43.6499648935
  H         3.3550015560       -0.8321519031       44.0151749854
  H         2.2648903243       -1.9262809865       44.4458883605
  O        12.8941963304       -6.4822281191       33.9474456858
  H        13.1321593900       -6.3281008944       32.9719993651
  H        12.6651350371       -7.4165773330       33.9643880544
  O         4.6817156846        0.2237023700       31.7701235634
  H         5.5563673025       -0.0961107629       32.1205162031
  H         4.4236630375        0.9719495680       32.3544926375
  O        17.0113338508       -1.5205764401       34.8461902372
  H        17.5696653020       -1.8689821466       34.2064929309
  H        17.5695019820       -1.0705449605       35.5287194135
  O        16.2968645669        2.8300810572       32.7268237681
  H        15.5538819363        3.0271788355       32.1634916316
  H        15.9441513314        2.8373792133       33.6184590338
  O        10.8628706185       -7.7225399654       38.1021656371
  H        11.7962858893       -7.3932998104       38.2133022939
  H        10.3376251609       -6.9391211945       37.7317321184
  O        12.7463844309       -0.8619526411       35.3026214274
  H        13.6293549175       -0.5576114210       35.6066742207
  H        12.5257954566       -1.7648952098       35.6628752633
  O        13.1683826516       -6.3931794429       43.5515420179
  H        13.9331120932       -5.7904251534       43.2646267963
  H        12.4032303432       -5.9971706010       43.0849513244
  O        17.7624240449       -6.4350938991       35.0136772648
  H        18.1153604486       -5.7212977672       35.5979678340
  H        18.4347380357       -6.6629174915       34.3753028365
  O        -2.4201841702        0.2805687714       27.0517544620
  H        -3.0322932731        0.0209986959       27.7430163641
  H        -1.4121250189        0.2353852382       27.3003087234
  O        12.3086957413        2.2560412218       43.3256040069
  H        12.9701245215        2.9269243469       43.0325476793
  H        11.5047773086        2.5700774220       42.9032210872
  O        10.7690811801        0.6386233009       48.8830465608
  H        11.4600426653        0.0440651341       48.4241660102
  H        10.5874999648        0.2571951868       49.7571844396
  O         8.5239251264        3.5436485425       34.3241595677
  H         8.8648232696        2.9909874951       33.5327427556
  H         9.4009642429        3.5722104804       34.8629786967
  O        14.6804778913        3.3358801563       35.0460958316
  H        15.0031060083        2.4790023413       35.4209934692
  H        13.7430780323        3.3932933283       34.7916177026
  O        21.4370902919       -1.1193512499       34.7888914058
  H        21.9011283183       -0.3028114764       35.1933590579
  H        21.9553247311       -1.7771727392       34.1958724955
  O        13.4603766575        2.4130793950       37.9669050028
  H        12.8916799954        2.8690002413       37.3012318356
  H        14.4018980289        2.5003032741       37.6439691454
  O        14.8500649970       -4.7095712924       42.4535166482
  H        15.7292397880       -5.2211310054       42.3712142800
  H        15.1137922670       -3.8955195206       42.9824060339
  O         5.4193499630        3.9107100944       36.8484395775
  H         6.0672774374        4.1424332913       37.5250108708
  H         5.3615499081        4.6641595506       36.2502527094
  O         0.4119030958        0.2413397211       39.3678686196
  H         0.7068930909        1.0258228503       38.8423799564
  H         0.8692643501        0.1785448211       40.2360292832
  O        17.9520002473       -2.5559611884       32.4298340484
  H        17.2418445067       -3.2835832113       32.4995179399
  H        18.7042396607       -3.0237926095       32.8305903378
  O         9.6611973105       -3.1569327915       38.7788799408
  H         9.0370015461       -2.6813836925       38.1600512967
  H        10.1153432980       -2.5297869991       39.3338542474
  O         2.7268124201        0.5617464069       35.4802503410
  H         2.9883274282        0.5124270262       36.4026487256
  H         3.5283798202        0.0827312286       35.1263355559
  O         8.9301083118        2.0454034470       44.4011350033
  H         9.4934336819        1.3420387235       44.7587803415
  H         8.1095685799        1.5495694821       44.0699485099
  O        10.8770053118        3.1272018733       35.6580271464
  H        10.7916914525        2.1881538741       36.0383785758
  H        10.8840760261        3.8510229662       36.3727916688
  O         8.1390595137       -3.9102164481       44.4920291528
  H         7.5839162188       -4.0507631547       43.6885399544
  H         8.0554299765       -4.8595846116       44.7985139237
  O         4.7785445777       -6.3057301567       42.5094466383
  H         5.4387881793       -5.5759505757       42.4608816782
  H         4.8676590426       -6.8766255492       41.7083782542
  O         0.9543992860       -6.2932759168       38.0710306308
  H         1.0121860681       -5.5877554667       38.7806868421
  H         1.7566639145       -6.1672718595       37.5204485807
  O         9.5970117261        2.7947660791       39.7834600860
  H         9.6658350239        1.8299667492       39.4994060507
  H        10.2687556166        3.3412190221       39.2331052675
  O        11.0428598651       -1.1830104688       43.2632184539
  H        11.3181646926       -1.8595177936       42.5806739830
  H        10.2053271592       -0.8372125778       42.8968520016
  O        20.8083287430       -5.2544437522       27.7912454406
  H        21.2564673361       -4.4718084058       27.3932497870
  H        21.3555865715       -5.5265509556       28.5867652255
  O         6.6804850373       -4.5461415271       29.8127711506
  H         7.2050803492       -4.7929044677       28.9764396678
  H         6.4275978425       -3.6454587411       29.6047179420
  O         7.7472059085       -6.6984250812       32.9347504045
  H         8.1111524429       -7.5093524027       33.4232318573
  H         7.2014759963       -7.1242197606       32.2321703187
  N        12.0565114819       -3.4123969526       36.1369925910
  H        12.8397992387       -4.1093951567       36.3522616733
  H        11.4027792254       -3.2628772146       36.9363940036
  H        11.5268261342       -3.8756515089       35.4716691763
