     193
 CELL 12.4294 12.4294 12.4294 90.0 90.0 90.0 i =    39320, time =    19660.000, E =     -1096.5112683205
  O        -1.5435367858        0.6052484968       18.6084705371
  H        -1.2204253462        0.1150721472       17.8204586773
  H        -2.4460431620        1.0368422284       18.3812801189
  O         1.1253983864       -7.8820614129       13.1491780159
  H         1.8506693109       -8.5739103675       13.2944338946
  H         1.1423704137       -7.2730920513       13.9251146582
  O         1.1377555024       -6.3135419715       15.5876509333
  H         1.5674666386       -6.7218798359       16.3873655652
  H         0.1518904976       -5.9729584839       15.7408006000
  O        -0.2881376800       -0.6213736852       16.3668657854
  H         0.3539394964        0.1069919199       16.2695692988
  H        -0.5112248899       -1.0564788615       15.4680860656
  O       -10.9968520045       -4.0414406888       11.2354339149
  H       -11.8704602741       -3.6411949368       11.3427671261
  H       -10.6928018217       -3.6499673539       10.4075913840
  O         5.1037788596       -6.0960514831       19.5464226998
  H         4.7621906377       -5.3233282579       19.0564356312
  H         4.2943102816       -6.4260158902       19.9648057366
  O        -2.4281089679       -1.2703196427        7.9679098790
  H        -2.8691552516       -0.7359360738        8.7126202968
  H        -2.1390342138       -0.5363529138        7.2793634637
  O         5.4609797684        4.1459570613       17.1324359775
  H         4.5649112539        4.4063811956       17.4687443598
  H         5.3229664855        3.7151420320       16.2461579258
  O        -2.7420539296       -7.7316773678        3.9587300884
  H        -1.9457989765       -8.3425352931        4.2963498129
  H        -3.2479557483       -7.5316725022        4.7954684542
  O         0.4794433150       -1.5669876668        7.8615455972
  H        -0.4294127806       -1.4067019310        8.2384285746
  H         0.1883041595       -1.9908773596        7.0153859153
  O         2.0260138024       -5.0532644955        6.5389300633
  H         2.4863622375       -4.5322617419        7.2318564066
  H         1.2334492618       -5.4365202281        7.0130943539
  O        -9.2769954115        5.2097235359        8.7589221122
  H        -8.6962763645        4.3782579449        8.8043209448
  H        -9.7853457054        5.4992508628        9.5985673856
  O        -9.5369793142       -1.7401303360       16.5971613781
  H        -9.5604017911       -0.7916748622       16.9371821779
  H        -9.8374056111       -1.7426846271       15.6540633534
  O        -1.8070925483       -3.9756950625        9.0621246797
  H        -2.1682597556       -3.2023739715        8.6401127550
  H        -2.5005770873       -4.3355238981        9.6751730307
  O        -0.5475739053        1.8077471593       10.9226868383
  H        -1.1789879488        1.9898411146       11.6696052113
  H        -0.9365437693        2.3141827065       10.1740627185
  O         8.0097594277        0.0687968831       13.6646227956
  H         7.9330855653        0.7538362564       12.9039129870
  H         8.8052371379       -0.4922472177       13.4885176629
  O         4.8521665300       -3.8526853787        5.0880184065
  H         5.3155162158       -4.2658100726        4.3256018947
  H         4.0392495874       -3.5072607095        4.6990441001
  O         1.2781605492        1.7100255154       16.4287573469
  H         1.9817689065        1.4142633901       16.9665368608
  H         0.7534397926        2.4408985501       16.8048033617
  O         1.5686502916       -0.2398609214       10.3928911268
  H         0.9550019166        0.4407332190       10.7184935651
  H         2.3704896104       -0.2884047867       11.0235098846
  O        -1.4362225725       -5.5726677249       15.3699996280
  H        -1.7089253649       -4.6249660542       15.8542780980
  H        -2.0419389740       -6.2551797260       15.8050010781
  O         5.4454767393        3.0909383522        2.0299206725
  H         6.3136935759        2.8699076239        1.5885392712
  H         5.2841951629        3.9629891727        1.6601598904
  O        -2.1742240085        1.5814293082       15.3921073170
  H        -2.9425762738        1.2412805689       14.9043354058
  H        -1.5640206270        0.8359705640       15.5654978628
  O         6.2066338075        0.1356983128       16.9355573086
  H         7.0323116794        0.7143672655       17.1172686174
  H         6.2378884802       -0.6426976441       17.5566599394
  O        -3.3106766959       -7.4288223866        7.1943945430
  H        -3.5067163034       -6.5673685959        7.6146773024
  H        -2.7165243088       -7.8792562931        7.8794794601
  O        -4.9501741100        1.7898243168       11.0376100144
  H        -5.1140512326        2.7994369204       11.0120747589
  H        -5.8596062376        1.5047008150       10.7584640399
  O         6.0543376374       -5.6147960295        3.3259106276
  H         5.9359619510       -6.4272384224        3.8036954084
  H         5.6858197944       -5.7545355269        2.4446251925
  O         3.7121597742      -11.2297677817       17.7169565569
  H         3.5290785989      -11.3505688983       18.6753483871
  H         4.6268852748      -11.4533489081       17.5180660352
  O         2.2720288083       -3.3151216774        8.8188941410
  H         1.5902519951       -2.7138258625        8.4565013456
  H         3.0902559457       -2.7645351889        8.8689696220
  O        -3.7727091730       -5.7036630890       10.5286186414
  H        -4.2250935117       -5.3804336826       11.3341941938
  H        -3.0387237818       -6.3218036262       10.7719548906
  O        -3.9695551425      -10.4356324526       17.7385902590
  H        -4.4267202730       -9.7971431578       18.3555862412
  H        -3.4661108370       -9.9775762830       17.0852278605
  O        -4.8624666215       -3.1910518428       14.4391679265
  H        -5.8281726930       -3.5170469169       14.3587987205
  H        -4.9456294028       -2.4698166983       15.0983097583
  O        -6.3205735953       -1.9241953577       18.9878541334
  H        -6.7500762154       -2.7156696627       18.4569423307
  H        -5.3846814209       -2.2643476897       19.0659867776
  O         1.4653811942       -9.0715960876        7.2484222204
  H         1.9383392451       -8.3582345895        7.8988476629
  H         1.8840110547       -9.9266588413        7.5380087567
  O        -3.1237521244       -0.0644586905       10.3452832838
  H        -3.6669329420        0.8223853028       10.4535467749
  H        -2.1750264792        0.2246861301       10.2436697923
  O         7.7788062128       -5.2563786997        8.0209501871
  H         6.8413333608       -5.5616981157        7.8460857614
  H         8.0859855933       -5.3306710296        8.9445718433
  O         6.8256486501        3.3313396099        6.9517413668
  H         6.2828907529        3.6137064604        6.2083303467
  H         7.5396715012        3.9893031899        7.1175179731
  O         2.7352268434       -4.7548357125       13.7336111757
  H         2.2338856635       -5.2055885846       14.4809566136
  H         2.1012016147       -4.5491853392       13.0001311252
  O         4.7229770568       -1.7264357991        8.9830496527
  H         5.1466940523       -1.8382409439        8.1025659009
  H         5.0178686325       -2.5208652290        9.5422447254
  O         0.4218860806       -2.8525724802       17.9034199327
  H         1.0517531841       -2.1927111765       17.4666585108
  H         0.9097810162       -3.6948506047       18.1173493032
  O         6.2340560137       -7.9700650809       10.9313562647
  H         6.9289437691       -7.4079808992       10.5327746757
  H         5.6332098622       -8.1508341657       10.1760864004
  O        -7.3541210896       -3.4236046760        1.4598174490
  H        -8.3092277549       -3.7816171798        1.4943394776
  H        -7.4773845530       -2.4690617471        1.6585486237
  O         2.8228877736        4.8650221590       17.7443241459
  H         2.9957565724        5.5328092721       18.4500348362
  H         2.4607327830        4.0755377440       18.2739393072
  O         2.5670906079        1.0000187139       20.2501066446
  H         2.0069760520        0.2234859524       20.6078887255
  H         3.0059382126        1.2860366232       21.0316384346
  O        -1.7665835397        5.3317883614       11.2144905333
  H        -0.8782565616        5.7088339962       11.4192042051
  H        -2.0255644146        4.6427170525       11.8311740614
  O         5.1214683773        3.2682145726        8.8953406795
  H         5.1078510572        2.4570506463        9.4584624627
  H         5.6902642632        3.2915062194        8.0353684683
  O        11.2894542222        3.4598925247        8.8544690641
  H        11.3525986590        4.4104677054        9.1880474306
  H        12.1664953082        3.3208772580        8.3269513098
  O         4.8522833079        0.9039318653       10.1748209648
  H         4.8573573463        0.0076478852        9.7205270017
  H         4.3153798916        0.7566282234       10.9614917596
  O         5.5477814071       -0.7467775055       14.3054002447
  H         5.5401181415       -0.5787026142       15.2312880794
  H         6.4926243600       -0.6358488024       13.9686333349
  O        -1.5667197453        3.2609297191       12.9605762966
  H        -0.5835781127        3.4756655401       13.1221638831
  H        -2.1026725133        2.8415599787       13.7174218879
  O        -8.8205563960        0.0071755828       12.6787769908
  H        -8.0261000340       -0.0431120115       13.3031660667
  H        -9.4685573742        0.6717774925       13.0393142305
  O         8.5388443235       -3.1404313016        6.5246259586
  H         8.2185360990       -3.8808094094        7.1035263100
  H         9.1145019131       -2.6288463986        7.1491068569
  O        -0.8672534152       -2.3318433567       11.7386422142
  H        -0.6752653029       -1.6725074420       11.0470638261
  H        -1.7858503347       -2.6465538457       11.4659214923
  O        -3.7945713845       -2.8923073928       11.5983634850
  H        -3.8607861953       -2.0470264637       11.1254390905
  H        -4.0577993519       -2.7632378459       12.4909119542
  O        -0.7555469983        2.9811203694       17.6283837939
  H        -0.3361312221        3.6009380105       18.2529689684
  H        -0.9076339920        2.0934346622       18.1566456150
  O         1.2174476850        5.6339714907       10.8503836206
  H         1.2890689907        6.5494805650       11.0439165379
  H         1.2253191215        5.1248022858       11.6759737547
  O        -1.9406975194       -3.3078482087       16.7561259627
  H        -1.1684858188       -2.8518085380       17.1841546317
  H        -2.5359665950       -3.5408376084       17.4428308780
  O        -1.6683906515       -1.4638330197       14.1950603478
  H        -1.2190971579       -1.7239272931       13.3496839521
  H        -2.0983282793       -2.3063794994       14.6026133098
  O        -7.5982653216       -6.6739361293       13.1759701304
  H        -8.2806629576       -5.9467304015       13.1305761330
  H        -7.1943256619       -6.7029414448       12.2408541777
  O         2.8427829973        2.2945373423       14.1255610630
  H         2.2831322779        2.0884317331       14.9093026169
  H         3.8283492249        2.5680817209       14.4548664997
  O         1.8125533073       -1.6685148718       13.9978583415
  H         2.4553315162       -1.5945322892       13.2954804315
  H         1.0210039530       -1.9167776338       13.5218578437
  O         8.0920488840       -8.6607261198        1.4861944826
  H         8.1477701818       -7.6566408159        1.1976971995
  H         8.3908832135       -8.6437138730        2.4015600967
  O        -3.8420110563       -5.9045039923        1.0226705165
  H        -4.3153896991       -5.5492561907        1.7825505390
  H        -2.9054480365       -5.7762704549        1.3849689418
  O         0.0010999531       -5.8869262568        8.5806685775
  H         0.2817660658       -6.2204839511        9.4763315437
  H        -0.6497816821       -5.1748728460        8.5856058468
  N         5.7966499665       -3.8151338894       10.5131822620
  H         5.3807758301       -4.0349800428       11.4231331886
  H         5.7393599768       -4.6901058291        9.9442601312
  H         6.7297841309       -3.6322539099       10.7674748966
