     193
 CELL 12.4294 12.4294 12.4294 90.0 90.0 90.0 i =    39720, time =    19860.000, E =     -1096.5301629815
  O        -1.8141538259        0.5887914619       18.5875351713
  H        -1.2252403811        0.2270349915       17.8669833469
  H        -2.7181330424        0.7438120883       18.2161394070
  O         1.6578649365       -8.0288190375       13.1176917904
  H         2.3849705774       -8.6395400051       13.4085137424
  H         1.5504758939       -7.3673028526       13.8210619586
  O         1.1018491794       -6.1929727475       15.1796446494
  H         1.5255522716       -6.3359855957       16.0865844191
  H         0.1426805558       -6.1734115119       15.3449780668
  O        -0.1672203452       -0.0938154504       16.5429603124
  H         0.2881913646        0.5599496301       16.0637840923
  H        -0.4445303170       -0.7797670677       15.9120324214
  O       -10.6358338839       -4.0917946292       11.4470222403
  H       -11.4495907126       -3.6219783536       11.5675747405
  H       -10.2814359661       -3.8429562820       10.4932055627
  O         5.3190865042       -5.0242974763       20.7299802618
  H         5.1278140290       -4.5871772975       19.8991423513
  H         4.5700495871       -5.6986844079       20.8142361708
  O        -1.7189950844       -0.8816304727        8.3180005333
  H        -2.4082187193       -0.8928263169        9.0188905312
  H        -1.7958886549       -0.1240976443        7.6392463145
  O         5.3318267650        4.8114512429       17.9516369195
  H         4.3764276094        5.0672601719       18.0832283663
  H         5.3076848368        4.3749674855       17.1071584478
  O        -2.4861162642       -8.1376228097        4.8124523318
  H        -1.7909397266       -8.7074053344        5.1857923659
  H        -2.9070194306       -7.7717277553        5.6397613281
  O         0.7636325921       -1.7158845711        7.6517335636
  H        -0.1557376837       -1.4023471729        7.9952555576
  H         0.6494008774       -2.2073155725        6.7764903423
  O         2.0154124968       -4.9363308322        7.1098721674
  H         2.5588496873       -4.3108393265        7.6451320990
  H         1.2466521536       -5.2502958713        7.7457080422
  O        -9.0867445673        5.0693525360        8.8740632015
  H        -8.4012765551        4.4099022025        9.2978843683
  H        -9.6816049568        5.4258507064        9.6627151408
  O        -9.6429678610       -1.6062891547       16.8874041047
  H        -9.6079031832       -0.6830503239       17.2979176640
  H        -9.9985201572       -1.6939565284       15.9392138796
  O        -2.0449682355       -3.9798538899        9.0447267450
  H        -1.3899162267       -3.3754362124        8.6106275418
  H        -2.4188118257       -3.4372192801        9.8219096209
  O        -1.0841981765        1.3115532505       10.6772482906
  H        -1.0999440859        1.8134877579       11.4765621142
  H        -1.1442329943        1.9232696284        9.9359035848
  O         8.2519008733       -0.0184238690       13.9315569059
  H         8.1613996620        0.6484788394       13.2243963065
  H         9.0571123732       -0.5906505399       13.8978940143
  O         4.4507973853       -3.8046738881        5.2940328313
  H         5.0365509967       -4.3058073936        4.6752385369
  H         4.0103411130       -3.0341923748        4.8480452850
  O         1.4981876688        1.9618623836       15.8645725146
  H         2.1368957715        1.7447092768       16.5671921693
  H         0.8317379763        2.5054092555       16.3622176958
  O         1.1391679775       -0.8318188453       11.2147318036
  H         0.8100627438       -0.2617637788       10.4817086251
  H         1.9378079304       -0.4334112835       11.5742013393
  O        -1.5546103990       -6.3829730274       15.7362759512
  H        -1.7001242966       -5.4250186287       16.0952560590
  H        -2.0225606913       -6.9965457412       16.4362569773
  O         5.4868398069        3.4701260386        2.8905955598
  H         6.3965375707        3.1829719391        2.7206954703
  H         5.4817548833        4.3607542045        2.4506109336
  O        -2.4362427392        1.5560128212       15.5991535555
  H        -3.1321325535        1.2326397890       15.0427313941
  H        -1.8854286669        0.7689012390       15.7837149555
  O         5.6701904994        0.0860423227       17.1731759989
  H         6.4479530280        0.6188497608       17.4294175546
  H         5.8062308770       -0.7483236167       17.7102307300
  O        -3.5873402010       -7.6747624529        7.2630628193
  H        -3.7105878930       -6.6715709768        7.3944321064
  H        -2.8098419677       -7.8994234667        7.7939537475
  O        -4.8917695120        1.5864900892       11.9895299432
  H        -5.1819201902        2.5544960041       11.9759588137
  H        -5.7511799460        1.1142918155       11.7119747612
  O         6.1864171731       -5.4128844025        3.7288849363
  H         5.9722198077       -6.1512257845        4.3242446522
  H         6.2579628314       -5.8179271472        2.8121498053
  O         3.1478679027      -11.7548681432       17.9651990040
  H         2.9447827343      -11.9507376254       18.8950510404
  H         4.0824771503      -11.6931111925       17.7123987760
  O         2.7784747713       -3.1110142665        9.0657659853
  H         2.1682269406       -2.5556507027        8.4978264703
  H         3.6712861659       -2.6780787516        9.1121927680
  O        -3.9652545088       -5.9271504386       10.8659440857
  H        -3.7124150850       -5.5308877904       11.7910893455
  H        -3.1017317678       -6.4546645085       10.6485678292
  O        -4.3461737295      -10.9672537922       17.8132481123
  H        -4.7546231020      -10.4481187254       18.5194178753
  H        -4.2016475368      -10.3451227577       17.1183930213
  O        -4.5688101857       -3.4561937952       13.3415605850
  H        -5.5541468843       -3.4791223941       13.4826300555
  H        -4.1277210383       -3.1900845080       14.1838894872
  O        -6.3779309595       -1.9799684404       18.8309577846
  H        -6.8913748801       -2.7033630813       18.4667718516
  H        -5.4273779143       -2.2535212688       18.7759445976
  O         1.3941690215       -8.9053801041        7.9057998585
  H         2.2753987164       -8.5622840996        8.2858669930
  H         1.3911609424       -9.8906651408        8.0480857816
  O        -3.3759149883        0.0132057143       10.3805549868
  H        -3.9235518714        0.7209047866       10.7765798494
  H        -2.4464280918        0.2928451069       10.6306189899
  O         7.9094604226       -4.8508499425        7.7784594379
  H         6.9959882416       -5.1047049802        8.0718015502
  H         8.3817077909       -4.8043208009        8.6141338863
  O         6.7438474159        3.2777422796        7.3399756434
  H         6.1756619097        3.8425412553        6.7776232062
  H         7.6320100401        3.7476395384        7.4727403353
  O         3.1216032074       -4.7479946871       13.6083749775
  H         2.4473724133       -5.0202625197       14.2761374440
  H         2.6383300177       -4.6425897659       12.7254460570
  O         4.9908188353       -1.6007504956        9.1625094528
  H         5.4763503070       -1.7499558730        8.3017401809
  H         5.5046564716       -2.2259725598        9.8222095259
  O         0.7512469962       -3.3071834152       17.8614241979
  H         1.4450823773       -2.6751129061       17.4945369379
  H         1.2648095011       -3.9299216778       18.4770816262
  O         6.6627550592       -7.9672657994       11.8618851535
  H         7.5201815348       -7.5270105060       11.5993654258
  H         6.2341960321       -8.1246384770       11.0068237835
  O        -7.0652403092       -3.0083336670        1.1859624208
  H        -7.8098851856       -3.6793348906        1.3488591118
  H        -7.3513495003       -2.2026812014        1.6618054319
  O         2.4911718714        5.4476865841       17.8394119414
  H         2.3118270466        5.9614723646       18.6925922671
  H         2.0959594915        4.5795428682       18.0988757696
  O         2.2410167297        0.4083694618       21.3085053671
  H         1.8758343603       -0.3312131778       20.8359875490
  H         3.0790202981       -0.0079362832       21.5761910188
  O        -1.4414799434        5.2222237424       11.1476823327
  H        -0.4728532769        5.2766367613       11.1975628730
  H        -1.7263376561        4.6495363971       11.9344592321
  O         5.2700257231        3.2138868786        9.5813017941
  H         5.0974886537        2.2951960164        9.8455559728
  H         5.7917238657        3.1472994853        8.7468730854
  O        10.7709820474        3.6560847039        8.9247933681
  H        10.5644364498        4.2739536188        9.7215428832
  H        11.6246396077        4.1161000624        8.6505025255
  O         5.0587773224        0.7852983643       10.6270573131
  H         5.1133618229       -0.0660098282       10.1809738388
  H         4.2725203450        0.6580151106       11.2154873045
  O         5.4352044510       -0.4896710698       14.5510482627
  H         5.4587822720       -0.3559407268       15.5052641133
  H         6.3978339364       -0.3408499830       14.3487802170
  O        -1.2979755615        3.3900179303       13.2404901109
  H        -0.3980806916        3.4495137544       13.5603930878
  H        -1.6640935400        2.8709954299       14.1013795450
  O        -9.1100262084       -0.0961588068       12.8585194700
  H        -8.3093453856       -0.4195758309       13.2904829387
  H        -9.1445133537        0.8015625080       13.2858669101
  O         9.0699333464       -2.6275265604        6.5100232557
  H         8.5999516463       -3.3444975035        6.9931253112
  H         9.3897434984       -2.0423759487        7.2476959690
  O        -0.7624008075       -2.1890152393       12.7294740104
  H        -0.1141594818       -1.6091408394       12.1867310928
  H        -1.5698938809       -2.2070099717       12.2166174566
  O        -3.1367961456       -2.4507266792       11.4025627367
  H        -3.5126985705       -1.5648385468       11.0536659982
  H        -3.6806501257       -2.8193228405       12.1870142557
  O        -0.1370339069        2.7768601236       18.0459997626
  H         0.4231206708        3.1404194981       18.7777639305
  H        -0.7479828297        2.1072824423       18.5129202283
  O         1.2786548037        5.6246586598       10.9343490260
  H         1.4828329601        6.6002343374       11.1976960989
  H         1.2500805816        5.1531074501       11.8046583050
  O        -1.7134610625       -3.7145722894       16.5550266139
  H        -0.7954043270       -3.5673959751       16.9429739861
  H        -2.2962278222       -3.3200055477       17.3135409922
  O        -2.0016249240       -1.4144961172       14.9093330002
  H        -1.3609470533       -1.7399054349       14.1767536461
  H        -1.9955492364       -2.1912435495       15.5174279472
  O        -6.7324928871       -6.2842443064       13.7147731130
  H        -7.6876423914       -6.1287295204       13.4351672422
  H        -6.3343280069       -6.9903237696       13.0842791859
  O         3.2502475931        2.2008867091       13.9397938490
  H         2.5338725938        2.2016326084       14.6430340481
  H         4.0743886944        2.4611798877       14.4073355946
  O         1.8765285118       -1.9285598166       14.4678046890
  H         2.2385323138       -1.2388986388       13.7651552640
  H         1.9550892692       -2.7531809955       13.9687110950
  O         8.2430578354       -8.5088755968        2.0393702116
  H         8.4195329492       -7.5686087568        1.6806665128
  H         9.0261685237       -8.8229536171        2.4928702322
  O        -3.3058427029       -6.2323507558        1.2379763902
  H        -3.7933276040       -5.3608594259        1.3379731178
  H        -2.4701626571       -6.1588781468        1.7443074396
  O         0.0655385287       -5.9050763205        8.7872815808
  H         0.3727627988       -6.2821732485        9.6076491679
  H        -0.7595693187       -5.3994829636        9.1078252566
  N         6.1163313913       -3.4655034193       10.6238731071
  H         5.6654345028       -3.4847123936       11.5316743296
  H         5.8915302449       -4.3475061257       10.1102729940
  H         7.1132382261       -3.4762508462       10.8104007403
