     193
 CELL 12.4294 12.4294 12.4294 90.0 90.0 90.0 i =    68120, time =    34060.000, E =     -1096.5037374859
  O         2.6622124018       -2.8232811766       33.9353377239
  H         3.4470712276       -2.4105990109       33.4726934064
  H         2.0653340431       -2.0265657416       34.1927386294
  O         4.4632156654       -9.3615752622       29.4121582160
  H         5.3953803083       -9.7848308596       29.5954582064
  H         4.1890487614       -8.7172877797       30.0890719938
  O         8.5434759224       -5.4634867068       32.3597993896
  H         9.4078394672       -5.6378563344       31.9501270856
  H         7.9125168506       -6.2187286210       32.2653744522
  O         4.7084119802       -1.6392315064       32.6309026334
  H         4.7018021003       -0.6264902778       32.7422851885
  H         5.6260759400       -1.8594149259       32.4090149277
  O        -5.0616965617       -6.6544936155       27.6798453229
  H        -5.4602707212       -5.7475585712       27.7245812263
  H        -4.5747054346       -6.7906785231       26.8508944283
  O        10.6675269216       -4.8000720929       38.5725931695
  H        10.6356865848       -5.5589525187       37.9137939278
  H        10.8556261532       -5.1389632033       39.4597938313
  O         5.4423363630       -2.4869657976       23.0612576476
  H         4.6049055321       -2.1327973966       22.6677083182
  H         6.2704535161       -2.0364323395       22.5572898281
  O        11.9614552189        3.7315571298       33.9712172828
  H        11.0502475492        3.6599069862       33.7038450179
  H        12.4305411993        3.3800726376       33.1231773833
  O        -0.5716913167       -6.0344749206       21.6140100896
  H         0.2050140884       -5.7810249785       22.1824966046
  H        -0.4334881390       -7.0244227612       21.5565658905
  O         4.6377613966       -4.5868899813       24.9594409774
  H         4.9454054579       -3.9029818627       24.3207101917
  H         5.4278096668       -5.1878519047       25.1157625614
  O         6.5054545110       -6.6399285647       24.6715857079
  H         7.2529552091       -7.1325436945       25.0101985766
  H         5.9305505671       -7.3424068362       24.2792130638
  O        -0.9451053489        5.0881841584       27.2952183633
  H        -0.2716339050        4.4321376387       26.9411800193
  H        -1.7845062859        4.8042846127       26.9133657903
  O        -4.6609140811       -1.6012056234       34.4384751368
  H        -4.1568700682       -0.8242272675       34.1279667646
  H        -3.9729210998       -2.0229146710       35.0293633012
  O         2.3946919842       -4.9546015537       26.5807145565
  H         3.0096339618       -4.7866140515       25.8598010721
  H         2.9173002641       -4.5248282306       27.3754324691
  O         3.9998807838       -0.5792843101       27.5236417864
  H         3.4582481291        0.1944292542       27.7372729134
  H         4.5410159287       -0.3168014389       26.6732616316
  O        15.0517056488       -0.7753142309       30.8554606202
  H        15.2149718136        0.0278536493       31.4208821626
  H        15.7524101649       -1.3732544929       31.1436473728
  O        10.0149238223       -6.5002090813       23.7045666427
  H        10.7481333419       -6.5128411872       23.0002551375
  H         9.2256407122       -5.9787893150       23.3690296039
  O         6.6034056424        2.8702724906       32.9498503027
  H         6.6594308370        2.6060440509       31.9971669547
  H         5.8944996037        2.2496490762       33.1445960779
  O         3.3931437985       -3.2640687748       28.3339489108
  H         3.6470437897       -2.3488569120       27.9485309902
  H         2.9962311426       -2.9603788412       29.2410710867
  O         6.2454152161       -6.9228529273       32.5198047873
  H         6.0762721551       -6.5776587904       33.4577158535
  H         6.3252904285       -7.9248877588       32.6192263949
  O        12.7904103224        2.6317677372       19.0536383684
  H        12.1959273332        1.9042015398       18.6792545319
  H        12.5338776635        3.4522552185       18.5062974927
  O         2.9203703053        1.7335965339       32.0088823515
  H         3.4642540129        1.8771081186       31.2169361085
  H         2.0322522475        2.1552976555       31.8049138112
  O         9.6905628458        0.2659316538       33.8711511902
  H         9.7154482605        1.2236576247       33.9423046061
  H        10.5733050722       -0.0355441140       33.7561899147
  O         3.0475256683       -9.9547771925       23.1119833216
  H         2.9566912484       -9.0580234292       22.7886235189
  H         2.0655815018      -10.3305468112       23.2073406576
  O         0.7928587398       -0.0809576725       28.7946759604
  H         1.2694095152        0.8039619868       28.6473581646
  H         1.4507964968       -0.6101704744       29.2521327980
  O        11.2347835496       -5.4193435127       18.9882882997
  H        11.6130051058       -5.3389983875       19.8967927704
  H        11.5723265124       -4.7335756973       18.3283133819
  O         8.1064439386      -10.0146827572       36.9848040690
  H         7.1461097084       -9.7686474226       37.0423476030
  H         8.0469423133      -10.9358573319       37.4175630457
  O         9.5400847963       -2.7455349932       23.7244906860
  H         9.0565974842       -3.6078652471       23.6394206792
  H         9.5044673661       -2.4268703877       24.7033208900
  O         2.7061675093       -7.4850917090       25.8035763443
  H         3.6428205347       -7.5890887126       26.2251787555
  H         2.4527157392       -6.4917899840       26.0437185056
  O         1.6162227274      -12.4982679529       33.6630480642
  H         1.0672904793      -12.1747475714       34.3866756147
  H         2.1858740948      -11.7962124333       33.4380186126
  O        -0.5518374044       -3.4523579380       29.5862405283
  H        -0.5355058840       -2.6769274826       30.1787396204
  H         0.3705220207       -3.6584820454       29.4723711581
  O        -0.7382272413       -1.8786427918       34.6334028236
  H         0.0289046621       -1.9128187428       35.2480294893
  H        -1.3636758516       -2.4485354489       35.1580608818
  O         8.9518755743       -7.8442187189       25.7297620853
  H         9.5025384643       -7.5142037958       24.9527664504
  H         8.7659799178       -8.7742877202       25.4266360417
  O         2.1773750681       -1.2036220668       24.3426927758
  H         1.6646100773       -1.1131417434       25.2292568724
  H         2.8328074247       -0.4518283242       24.4194342266
  O        12.8291357943       -3.4529098838       25.2950211274
  H        11.9118250358       -3.7981413682       25.6010375019
  H        13.3876014911       -4.1181244531       25.8830553114
  O        12.8972259833        1.6115353099       23.1696602594
  H        12.4703844811        2.4051880275       22.7784346283
  H        12.3075026590        1.2179974725       23.8044655294
  O         9.2052962738       -8.4304085487       29.6662661681
  H        10.1221145681       -8.2361078863       30.0702318121
  H         8.8549220235       -7.5789404370       29.3540656829
  O         9.6556628577       -1.5374917948       26.0670289239
  H        10.6056778699       -1.2915123843       26.1423471593
  H         9.3982009096       -2.0487084128       26.9625626766
  O         7.9274766906       -4.9622322457       35.1847687317
  H         8.0657695478       -4.9327570422       34.2290640850
  H         7.0513565594       -5.2482410504       35.5118888052
  O        13.1820662794       -9.2002817453       26.1444047245
  H        13.9630243231       -8.6811387831       25.8207735186
  H        12.6839456903       -9.6344516517       25.3897088607
  O        -4.5467255861       -0.7155902468       18.6409019831
  H        -4.7832259775       -1.6644480660       18.8184511969
  H        -3.6994120247       -0.4866063644       19.1394674120
  O         9.1096680201        2.7614169682       34.1526167294
  H         8.6158380828        2.6882389794       35.0447054323
  H         8.3375075657        2.7508362180       33.4762080810
  O         7.7724724863        0.3372565782       38.6067740009
  H         8.5043047396       -0.3465568747       38.4789389618
  H         8.0472437359        0.7802239260       39.3823707702
  O         5.4707308577        3.0056422337       24.7513220705
  H         4.7093739734        2.3587270465       24.5915611636
  H         5.3018250166        3.3044592703       25.6849395633
  O        11.2866732132        1.2057435561       25.3332211926
  H        11.5944568487        0.3742705053       25.7608123680
  H        10.4562796183        1.3981674282       25.8292036389
  O        17.8215591333       -0.2293248788       25.1468033639
  H        18.7087432822       -0.0843355570       25.5495425433
  H        17.8956914362       -1.1343807052       24.8108785445
  O         9.5764872825        1.6749261157       28.0664002068
  H         9.5345912814        2.6501890502       28.3012489871
  H        10.2769338223        1.1466980171       28.5924980071
  O        12.1632039430       -1.8963275648       31.8208383086
  H        11.9570659551       -2.0391412710       32.7522394491
  H        13.0840920288       -1.5861965156       31.9119916295
  O         2.3113336360        1.7300600422       27.9187944771
  H         3.1061308979        2.2140043357       28.0852494806
  H         1.9083759299        2.1298169851       27.1091557204
  O        -1.0610128167        0.6163194549       30.5040661903
  H        -0.3981538419        0.3534681641       29.7871110839
  H        -0.9034012182       -0.1791221176       31.1048418001
  O        14.1525391262       -4.7180441349       23.2293792480
  H        13.4704205845       -4.2051436183       23.7143884676
  H        14.6219028080       -4.0802490299       22.6045202489
  O         6.3020746732       -4.1527465995       28.5595845395
  H         5.4655683616       -3.7747006033       28.1207861864
  H         5.9671215627       -4.5114796925       29.4193321039
  O        -0.0629643355       -1.1307334742       26.3468341601
  H         0.3619626092       -0.9420347836       27.2148213936
  H         0.2304074862       -2.0006282310       25.9580405514
  O         4.8244380394        0.7358520203       33.9526241387
  H         5.2847146766        0.3836882212       34.7786024755
  H         4.0729093792        1.2621106246       34.3475586468
  O         5.1247329356        4.2676805360       27.1286609188
  H         5.9530549659        4.7327583695       27.3586264228
  H         4.8093886387        3.8206543109       27.9261983040
  O         5.0949309641       -5.6201845120       34.7237683383
  H         4.8990366649       -4.6782508514       34.5406676209
  H         4.2392705768       -6.0720541738       34.9583899438
  O         2.3514103079       -3.8919414505       30.8766645021
  H         3.1419668339       -4.5111666934       30.7775431803
  H         2.1134802585       -3.7134150662       31.8183713770
  O        -0.8436632039       -7.8688851595       30.0732552944
  H        -0.9040878737       -6.9292186351       30.4691249830
  H        -0.7549875121       -7.7242177690       29.0892022049
  O         7.0121161265        1.8779608697       30.3672281937
  H         7.2924214521        1.0302648062       30.7833454114
  H         7.7619951625        2.4763366130       30.3277648924
  O         7.1327316915       -3.0598000206       32.0994884886
  H         7.6369642042       -3.9360908390       31.9097757905
  H         7.3983197024       -2.7571739908       32.9737855739
  O        15.6046734159       -7.9063987162       19.0515317755
  H        15.5724363341       -8.0471373345       20.0126630968
  H        15.9238146576       -7.0164023477       19.0463878347
  O         4.9931366169       -4.9035337068       18.8957906276
  H         5.2837935751       -4.0884249943       19.3419405085
  H         5.5213119092       -5.5906788690       19.3560279443
  O         2.8154357383       -7.2151879546       23.1286266243
  H         2.7637837550       -7.3813216957       24.1706790894
  H         2.2166450137       -6.4043738000       23.0438769583
  N         8.8590759571       -2.7206697901       28.4725570337
  H         9.5184701195       -3.3675222304       28.9242999095
  H         8.7674597502       -1.8432371011       29.0216713694
  H         7.9159674430       -3.1720767097       28.5433526612
