     193
 CELL 12.4294 12.4294 12.4294 90.0 90.0 90.0 i =    52120, time =    26060.000, E =     -1096.4855485759
  O         0.6122333527       -0.8362572211       24.6716378619
  H         1.5708870015       -0.6761878083       24.4375274105
  H         0.0888125363        0.0286642964       24.8273741125
  O         2.0654063388       -8.9020918590       20.2699548360
  H         3.0420998986       -8.9082098054       20.4081434887
  H         1.6309846374       -8.3792727858       20.9676533337
  O         4.0054014982       -6.5696541060       22.9397276212
  H         4.5899116953       -7.0588465040       23.5661619577
  H         3.0710735570       -7.0032452958       22.9236595849
  O         3.3646202809       -0.1864403870       23.7332354197
  H         3.7249565916        0.6327487582       24.2456107277
  H         3.1485629342        0.2214070028       22.8194617505
  O        -8.1946173053       -4.9043297531       18.8147675017
  H        -8.8651753346       -4.3180886993       19.1010720764
  H        -7.7830442263       -4.4924940325       17.9665606982
  O         7.4930736141       -5.8180859758       28.5534670395
  H         6.6641287936       -5.8500198199       27.9559770487
  H         7.4687075817       -6.3867707539       29.3430379490
  O        -0.1655222538       -1.9401318829       14.7118367639
  H        -0.7196939156       -1.2047348422       15.0855391938
  H        -0.0629359474       -1.7389947907       13.7091647661
  O         8.2799020671        4.7319560015       25.5108219177
  H         7.7819358556        5.5067604952       25.8220310814
  H         7.7772611950        4.3698447024       24.6770169081
  O        -1.6985352626       -6.7450359895       11.1601400953
  H        -0.9571811103       -6.9857900525       11.7367048202
  H        -2.3587851438       -7.2293566706       11.7199321452
  O         2.7645490882       -1.6820332993       14.9543113814
  H         1.7842035827       -1.9019655754       14.8486886774
  H         3.1120845699       -2.1482065869       14.2033948345
  O         3.4459665700       -5.0312015266       14.8230424204
  H         3.7614069224       -4.4581025934       15.5862836724
  H         2.5938850008       -5.4356871711       15.1786736078
  O        -4.7785647508        5.0375482165       18.4585993001
  H        -4.3830856173        4.1023450398       18.6353910418
  H        -5.5138830094        5.0906722460       19.0289714612
  O        -6.2690743985       -1.3549525965       24.0358112173
  H        -6.3223826249       -0.6026702446       24.6854019505
  H        -7.1145573241       -1.2765772656       23.5067577658
  O         0.7208018852       -3.5664822758       17.2949547466
  H         0.8805919115       -3.1802357951       16.4594175947
  H         0.0228004521       -2.9925251858       17.6448610219
  O         1.0172531581        0.5861314238       16.7121425238
  H         0.9699074030        1.4228054962       17.2378221033
  H         1.4075855741        0.8720359318       15.8675278917
  O        14.1198307886        0.8908484442       21.5302711239
  H        13.9461267288        1.5384069238       20.7941925010
  H        13.4651652875        0.1559022492       21.5139416341
  O         6.8945276513       -3.6887724195       12.5246306794
  H         7.5919179089       -3.8476923373       11.8130116079
  H         6.4702223725       -2.8745145029       12.1614195534
  O         4.1715369637        2.6426478359       23.9837737541
  H         5.1361140369        2.9016323681       24.0736686091
  H         3.6440129389        3.2917055386       24.4717474730
  O         3.1354246204       -1.3609435668       18.1149370819
  H         2.8669736111       -0.5353942207       17.6844490838
  H         3.7170982492       -1.0439080735       18.8883080631
  O         1.4463914139       -7.3398018950       22.9834805974
  H         1.1833771435       -6.6955732372       23.6568454552
  H         1.3030266132       -8.2466992424       23.4572387443
  O         7.0674646847        3.5414205807       10.8995897162
  H         7.7213134032        2.7214461309       10.8745470755
  H         7.3098024274        4.2358334945       10.2149359792
  O         1.1880438497        2.5823109122       23.8391482696
  H         1.4722095373        1.8423763726       23.2631734937
  H         1.6364082177        2.3302390168       24.7075339014
  O         9.0636749151       -0.5088289202       26.5882489657
  H         9.7513414032       -0.5913354491       25.8836758497
  H         8.8509411164       -1.4780163918       26.7324852993
  O         0.1001858559       -7.9251846470       13.3771832160
  H         0.2392464118       -7.2306162752       14.0505106067
  H        -0.3562974969       -8.5765476664       13.9430123902
  O        -2.1177038698        1.2152354840       20.5390728946
  H        -2.6448066317        1.8026536453       19.8636407649
  H        -2.2549162645        0.3279572256       20.1812597751
  O         8.8465015402       -4.4187947378       10.3049963682
  H         9.6454703055       -4.7906757727       10.7261468261
  H         9.3144605016       -3.7435631453        9.7423592997
  O         6.4196436833      -11.7848368766       26.1558102094
  H         5.9373288220      -12.3284880159       26.8541420699
  H         7.4082818965      -11.9414500268       26.2255017343
  O         4.6323120027       -3.4907349560       16.8515868402
  H         4.1688435670       -2.6555873705       17.0553245087
  H         5.6260736415       -3.2473724629       16.9044480018
  O        -1.0254772751       -7.8174544463       18.1019509357
  H        -0.9492463609       -7.6754427873       19.0398196325
  H        -1.2640107823       -6.9592757385       17.6564240735
  O        -1.2716186829      -11.1489321495       24.8947067288
  H        -1.7234349451      -10.7001846044       25.6481898378
  H        -0.4706081499      -10.5962943125       24.6314612170
  O        -2.7693233166       -2.3018430459       21.1134529377
  H        -3.4658912668       -1.6588243360       21.3985201793
  H        -1.8914667152       -2.1770230624       21.4683372624
  O        -3.9109413148       -3.0426008432       27.1455238231
  H        -4.5256500112       -3.3281571846       26.4717629670
  H        -3.1117506847       -3.7049183397       26.9119915958
  O         6.0534429553       -9.3293771183       15.2347506843
  H         6.2971013587       -8.5873161389       14.6429421069
  H         5.7600102348      -10.0646643133       14.6491870991
  O        -1.4360162346       -0.2395430975       16.2776050635
  H        -2.1126360869        0.0947696147       15.6479138206
  H        -0.6585811350        0.3866131965       16.4330041630
  O         9.9886300245       -5.2348036129       17.1048029095
  H         9.0069094662       -5.2777451905       16.9664622356
  H        10.0924979586       -4.3414841671       17.4427528309
  O         9.9011489995        2.8632253509       14.3640500702
  H         9.4400139925        3.7080278978       14.0340156637
  H         9.3170280711        2.5413929895       15.0909221026
  O         5.3158811342       -6.9410688494       20.4956545364
  H         4.7501174750       -6.6715553189       21.3348315242
  H         5.1106602348       -6.3627191887       19.6619502085
  O         7.1785449795       -2.5227413127       17.1698513002
  H         7.6689979617       -2.8146500375       16.3862044649
  H         7.4106926057       -3.1366421386       17.8864672073
  O         2.7630094666       -3.4502029867       24.8198281781
  H         3.2912433031       -3.5593223378       23.9719343046
  H         3.1397604876       -4.1303186351       25.3824977079
  O         9.1316054709       -9.5798186876       18.6177564888
  H         9.9413320138       -9.0149887399       18.5526510466
  H         9.0108446039       -9.8719486727       17.6572635329
  O        -4.7379712175       -0.8382402090        9.4544822925
  H        -5.3649709484       -1.4010175966        9.9998856959
  H        -4.5347102653       -0.0366665778       10.0360185123
  O         5.7805354175        6.4601451256       26.3158717295
  H         6.0598930866        7.3991895258       26.1576566602
  H         4.8972721147        6.5549664764       26.7540955928
  O         4.5546244660        0.1982631559       28.0338885811
  H         3.7934491312       -0.3477969844       28.1666759587
  H         5.1365558287        0.1158649413       28.8099017034
  O         2.8367395558        3.4304557764       15.5933475963
  H         3.7507132775        3.1700572968       15.8147543653
  H         2.3531430083        3.3880829424       16.4254060767
  O         8.3096436704        2.1018521983       16.4141465251
  H         7.8727219172        1.2676473029       16.7866392839
  H         7.6028816773        2.5135661956       15.8135221832
  O        14.5180644414        1.4379641166       14.0717540369
  H        14.9908819110        2.1967358814       14.4526197972
  H        15.1020913525        0.6679357431       13.9993759064
  O         6.8569217225        0.0693233542       17.5268361063
  H         6.9967207678       -0.8793698913       17.2154444262
  H         6.2346885753        0.1030677340       18.3286834011
  O         9.0321272521        1.4092473910       23.0381348748
  H         9.8720896460        1.3079245929       23.5778243074
  H         9.3726580629        1.5038693030       22.1154596135
  O         1.1370597029        2.9735441355       17.8135000110
  H         1.3756879827        3.0951851494       18.7500409196
  H         0.2916127858        3.4879622584       17.6554518289
  O        -7.0673815852       -0.0481358231       19.7084245177
  H        -6.4920886339       -0.2108990506       20.5165209923
  H        -7.3376566176        0.8748937826       19.9582576453
  O        10.9892041155       -4.3745867883       14.6642712174
  H        10.7517271225       -4.6742582600       15.5435587716
  H        11.6246820726       -3.5814705943       14.7804453901
  O         2.0263507602       -3.1672153173       20.1415472180
  H         1.9938580703       -2.5972926974       19.3403614189
  H         1.1973805816       -3.6988764294       20.2381956744
  O        -1.8446244185       -2.4343388915       18.1240133524
  H        -2.1221157632       -1.7101174391       17.5132885207
  H        -2.3796767346       -2.2971221503       18.9429711404
  O         2.9151084707        4.7452163927       25.5597352319
  H         2.7198898219        4.5817342455       26.5251718902
  H         2.4338204159        5.5514077744       25.3553545084
  O         2.9901832632        5.1691377395       17.8231348578
  H         3.3816000059        6.1040010668       18.0979001894
  H         2.6613258489        4.8099321432       18.6783557956
  O         0.3724623905       -4.9565143224       24.8367158790
  H         0.9640633567       -4.1464724629       24.7584845156
  H        -0.2933929601       -4.8336461359       25.5056487521
  O        -0.0638178025       -1.3530378579       21.8218135090
  H         0.5497470790       -2.1523287661       21.5142585034
  H         0.2013847066       -1.2144148052       22.7288168792
  O        -4.4009673366       -6.7374216519       21.3961068865
  H        -4.2855742712       -5.9705638797       22.0097972875
  H        -5.2981491840       -6.5481215451       20.9664565402
  O         4.8724937418        2.8046574621       20.7647688039
  H         4.7098337306        2.7141206218       21.7496719664
  H         5.2451879134        3.7264477851       20.5883628505
  O         3.9724662225       -3.5251213151       22.1256265126
  H         3.2541093484       -3.2543771975       21.5296187466
  H         4.0486990290       -4.4865560609       21.9402295615
  O        10.8395809146       -7.0675780742        8.2601940339
  H         9.8910705854       -7.2936552175        8.0834486964
  H        10.7460526896       -6.9467510337        9.2676456333
  O        -0.3217692830       -4.4070872445        8.9798573728
  H        -0.1122218020       -4.8430411347        9.8344354823
  H        -0.7796744004       -5.1210795094        8.5050401534
  O         1.3774726385       -6.2252849757       15.8754707372
  H         1.6868215494       -6.7374227971       16.6315117310
  H         0.6740048388       -5.6693113382       16.3393210905
  N         7.8094013175       -4.2270289502       19.2834251606
  H         6.8992072353       -4.5944281961       19.5241588041
  H         8.2984664516       -4.9705684786       18.8984281040
  H         8.2050371136       -3.7690663047       20.1405020781
