     193
 CELL 12.4294 12.4294 12.4294 90.0 90.0 90.0 i =    76120, time =    38060.000, E =     -1096.5362858026
  O         4.6499855752       -0.8268759816       39.0286315645
  H         4.2706717080       -0.4638695787       38.2112153077
  H         3.8116537182       -0.9227068127       39.5049306752
  O         5.5455937650       -8.3231030674       34.7970009906
  H         6.2718112232       -9.0162307292       34.6920265442
  H         5.9525837765       -7.4322611283       34.8373060165
  O         9.6305134532       -4.7778322978       36.0002954385
  H        10.4896546657       -4.6377521428       35.5050156016
  H         9.4916330038       -5.7524576196       36.3524617278
  O         7.8334936247       -1.1375296209       36.2397270619
  H         7.4560035787       -0.6030482852       36.9926019886
  H         7.2074976192       -1.7366289637       35.8685638608
  O        -4.7036621488       -5.3578353331       32.1514010192
  H        -4.4017270458       -4.5389533001       32.7160023043
  H        -4.1397851701       -5.2460598810       31.3205847850
  O        14.6753141868       -4.2007371288       43.9073475208
  H        14.1321741427       -4.8056778350       43.3154269235
  H        15.6133876573       -4.5314931015       43.8309909360
  O         5.7765561135       -3.3102899959       27.3326759747
  H         5.6096877565       -2.3841081001       27.0431568784
  H         6.5895710896       -3.1717865199       27.9072528337
  O        12.5753583377        3.3613405275       38.0322264350
  H        12.1297879055        4.1482596117       38.4209905835
  H        13.0010052106        3.6305653382       37.2307923358
  O         1.5539751288       -7.9676479209       28.4345122060
  H         2.0638205654       -8.2426794882       27.6557104202
  H         1.0417720409       -8.7567145540       28.7684569017
  O         8.4825999153       -3.2165147698       28.2848986903
  H         8.9219829168       -3.1408171220       27.3919369731
  H         8.5960216718       -4.0854128967       28.8093525841
  O         8.7149758494       -5.6589776326       29.3773935636
  H         9.4722634318       -6.2851274882       29.3845634926
  H         7.8448597988       -6.1721785902       29.2081586710
  O         0.3569208646        4.5929375956       31.6773601024
  H         1.2887765038        4.6295690643       31.5211483466
  H        -0.1280785064        5.0657600570       30.9568990448
  O        -2.8831370132        0.2300823068       39.9854508169
  H        -2.5425499107        0.5443493158       39.1086556255
  H        -2.4051794334       -0.5865541575       40.1384342237
  O         5.4256514963       -2.4024335995       31.0094948054
  H         6.2412723295       -2.0379429368       30.5583455911
  H         5.6009657836       -2.1864783260       31.9374868382
  O         6.2098351830        0.8092959993       32.0328883039
  H         5.7695425872        1.6279523014       32.3397834858
  H         5.6292056327        0.5028485116       31.2488327652
  O        16.2886314890       -1.7562417131       35.2674589232
  H        15.9032962862       -0.9966126893       35.7811183245
  H        15.5462161500       -2.1959779484       34.8628666150
  O        13.5232443977       -5.2456777851       29.0794647053
  H        13.4391483822       -6.1895385514       28.9305991383
  H        12.6806672640       -4.8710009948       28.6916359681
  O         8.3620429288        2.5661242169       37.0976683126
  H         8.0137451743        2.5517083487       36.2329298359
  H         7.9556781557        1.8371260358       37.5805324003
  O         6.0323211115       -1.4946296167       33.8421539104
  H         6.0314017720       -0.7968601568       33.1472383014
  H         5.1064304942       -1.4155264135       34.2538678483
  O         8.5960911547       -7.1064983211       37.2547959158
  H         7.7644481109       -6.9398625197       37.7156200794
  H         8.6173759213       -8.0783945161       37.1529439048
  O        13.4104220907        3.2003986795       23.1371815276
  H        13.9198026859        2.6080852826       22.5417614559
  H        12.6679296398        3.4705599753       22.5301140040
  O         3.7483942923        2.8279566560       36.4838457433
  H         4.4177607486        3.3275219615       35.8824570393
  H         2.9127225278        3.2952974973       36.3342959244
  O        12.2366337426       -0.6249565383       36.6782260775
  H        11.5936883947        0.0964815945       36.9886428234
  H        12.3845150628       -1.2263842593       37.4588759504
  O         4.4878627777       -9.8430839899       26.6718864563
  H         4.5258094926       -9.7888994334       25.7013595925
  H         3.6487567530      -10.3065752801       26.8534691237
  O         1.9848117274        1.4002363723       33.8089959589
  H         2.8430658439        1.8415180440       33.4895782805
  H         2.2078309042        0.7740753662       34.5431063269
  O        12.4735133889       -4.4893719896       22.8710637378
  H        12.7087002050       -4.7614825393       23.7972619911
  H        13.0809849419       -3.8051827332       22.5579567302
  O         9.9294348629       -9.8860444075       41.2970648590
  H         9.7907373440      -10.7590151210       40.9158337445
  H         9.2753576119       -9.8121561307       42.0182633016
  O        11.0401045791       -2.0060090150       28.3390990221
  H        10.2636613917       -2.5124609091       28.8294432349
  H        11.4529609453       -1.4202520838       29.1065415428
  O         5.1277017652       -5.2589187320       31.2567260178
  H         6.0399619772       -5.4637015804       31.7004550307
  H         5.2606743382       -4.2494344628       31.0497104891
  O         2.7321909785      -12.1147121963       36.3330400405
  H         1.7935585032      -12.2457315546       36.5397541430
  H         2.9475762885      -11.1666483503       36.2719186369
  O         1.5597214572       -2.6244528468       33.7906073214
  H         1.0265827608       -1.8377803944       33.4999186920
  H         1.7583112575       -3.1455612097       32.9749880127
  O         0.6782745021       -2.6257309629       38.7746555800
  H         1.4460097257       -2.1607916080       39.3148009558
  H        -0.1065314799       -2.5670158680       39.3992654800
  O        10.9349141019       -7.4281206560       29.1391806732
  H        11.3205511335       -7.1822931714       28.2919405877
  H        10.6389595213       -8.3836289996       29.0626768710
  O         2.1989721766       -1.1503194639       27.9323365480
  H         2.3692850368       -1.3342756223       28.9089021208
  H         2.0330339031       -0.2244866496       27.6838721133
  O        15.2750959663       -1.6389211037       30.3846351432
  H        14.8102730134       -2.4722003609       30.6215963006
  H        16.1974481268       -1.9150966749       30.4539255187
  O        14.3660394115        1.4509483677       26.8124092926
  H        14.0147684810        1.7725311005       25.9536329012
  H        13.7225235865        1.8359036246       27.4876059646
  O         8.7631994387       -7.6473369290       32.9969485183
  H         9.5897795482       -7.4578228924       33.4499128378
  H         8.3485951346       -6.7859865379       32.6758792305
  O        11.5951138821       -0.8989305729       30.6305389286
  H        12.3906219179       -0.3546982601       30.9238831100
  H        11.6539280362       -1.6722183164       31.2263568169
  O        10.9919036715       -6.8330483955       38.7394892507
  H        11.5529077787       -6.0757798926       38.3215085139
  H        10.0597770613       -6.6288791633       38.6003066706
  O        15.6583430009       -7.6631371811       30.7490098858
  H        16.3410531467       -6.9363003541       30.7196371545
  H        15.4394470140       -7.8416328005       29.7819390675
  O        -3.1609092336        0.1365048755       21.7456556094
  H        -3.4546774824       -0.5178757926       22.4254401069
  H        -2.1823587573        0.0773658783       21.7055316591
  O        10.6633985960        1.2786405942       37.7747672718
  H        11.2895265881        2.0094019967       38.0230281671
  H         9.9848475161        1.8529881984       37.3035130818
  O         8.9637268839        0.3625977346       43.9434503791
  H         9.8849440218        0.1107761718       43.6992044179
  H         8.9643268378       -0.0110006411       44.8450653843
  O         5.9564922483        2.8721322044       29.1280919942
  H         6.0205420602        2.6506119932       28.1175293483
  H         6.6981935239        2.6126001499       29.6899082112
  O        12.8634259391        2.0150072566       29.1342813919
  H        13.0860473445        1.7045873359       29.9937634915
  H        11.8843019678        2.0048047977       29.0834648155
  O        19.6242220829       -0.9959827315       29.7306938383
  H        20.1912724232       -0.5243688136       30.3845918806
  H        20.1625123209       -1.6002333611       29.2257186497
  O        11.5356988926        2.2334396440       32.1815248894
  H        11.9800639987        3.0414139151       31.7308745045
  H        10.6820269651        2.0279779555       31.7863121406
  O        13.0622995522       -5.2148301016       37.8458528185
  H        13.7429516810       -5.8874814369       38.0899301485
  H        13.1918061473       -4.3762907206       38.2804231141
  O         3.9501567887        2.9189630814       32.7967570152
  H         4.4155595580        3.5505709508       33.4471167411
  H         3.6006100599        3.5375959434       32.0684564880
  O        -0.3393621039       -0.5359212144       33.8532405790
  H         0.0612713672        0.3633655005       33.9035224431
  H        -0.2577337858       -0.8495429061       34.8287750396
  O        16.1819192076       -5.2739808826       27.9021360584
  H        15.2274238338       -4.9245489210       28.0429629474
  H        16.8456678545       -4.6112059075       27.5534615792
  O         8.2329965139       -3.3700317920       33.7716005936
  H         7.4469208970       -2.8262550924       33.9217002717
  H         8.3650270801       -3.8374003099       34.5630633918
  O         1.3957241605        0.5539861095       31.3037388541
  H         1.4632119458        0.8728289693       32.2289531537
  H         2.0563415644       -0.1015596743       31.2055465012
  O         7.1041941891        0.4011771558       38.6040303053
  H         7.8283723514        0.2690365308       39.2446877416
  H         6.2412885315        0.3291242103       39.0662123377
  O         8.3352994649        2.8095467905       30.9487655478
  H         8.3515704533        1.9340887171       31.3847888546
  H         8.6116706204        3.5438616778       31.5583709734
  O         5.9109955741       -6.3239288810       38.5042366738
  H         6.0227407623       -5.4803156566       38.9571881801
  H         5.8784731018       -6.8480519122       39.2752750259
  O         2.7401679294       -7.0653230037       38.5305158948
  H         3.2666543197       -6.4285746054       39.1006983964
  H         3.3642081289       -7.6824448097       38.1428127809
  O        -0.9484129797       -7.0293082635       34.1045533494
  H        -0.4741578443       -6.2243861365       34.4697969863
  H        -0.4787645359       -7.3078423105       33.2846938377
  O         7.6905596193        2.4290655908       34.4264180987
  H         8.1730861022        1.5766264833       34.2820208075
  H         8.0158010630        3.1172614477       33.7921330066
  O         9.3854409305       -2.7904269451       38.1574294947
  H         9.3739247915       -3.5400167070       37.6231584446
  H         8.7357016966       -2.2043712135       37.6424301316
  O        19.0899458168       -5.9959361777       22.5605085951
  H        18.6501508050       -5.3163935712       23.1856594851
  H        19.7228423772       -6.4389729953       23.0911626350
  O         5.9041676454       -3.5258669151       24.2160983852
  H         5.0536622966       -3.1052865083       24.2279262247
  H         6.3302764543       -3.6701414319       25.0898187750
  O         6.2421714834       -6.8488290439       28.9648866042
  H         6.1418662327       -7.8483909651       29.1185390941
  H         5.5668808427       -6.5142670598       29.5193685463
  N        11.1680698867       -3.4659615351       32.1616428297
  H        11.1852040319       -4.2333744326       31.4796401923
  H        11.5123477198       -3.8447203865       33.0710777734
  H        10.1505097986       -3.2760464188       32.3765338662
