     193
 CELL 12.4294 12.4294 12.4294 90.0 90.0 90.0 i =    84120, time =    42060.000, E =     -1096.5495393394
  O         6.0135338162       -1.7707139209       41.0599034354
  H         5.5537534703       -1.9286660463       40.1699181845
  H         5.2323924413       -1.3675337704       41.5872363321
  O         6.9178917249       -7.7054854954       39.2623522659
  H         7.4569530268       -8.5295339860       39.4016272116
  H         7.4860755097       -6.9432126792       39.4116082323
  O        10.7709253403       -3.1211847344       40.5874980959
  H        11.6264368494       -3.5139865022       40.2057965338
  H        10.2884586234       -3.9674167713       40.8499152121
  O         7.7234938136        0.3880097232       40.2820025207
  H         7.0510968637       -0.2622061664       40.6237284254
  H         7.2244933081        1.2731733104       40.3917514801
  O        -3.2517765768       -6.0959021896       36.6830417491
  H        -3.0365726515       -5.2741670827       37.1355641614
  H        -2.7638047928       -6.0698728639       35.8273558672
  O        14.5515007051       -2.8136856313       47.8331730023
  H        15.4596286120       -2.5439982582       47.5294239363
  H        14.5463954594       -3.7978284759       47.9179163908
  O         7.4779907835       -0.5140792761       31.5252843875
  H         7.7032699407       -0.8989722212       32.4000309089
  H         8.1808550095       -0.8929275028       30.9613745329
  O        14.4392209401        4.0189163265       42.3585172136
  H        14.1554970027        4.8994705660       42.7992549840
  H        14.1930000256        4.1720701160       41.4005778598
  O         5.4258898045       -7.3984459460       31.6051535713
  H         5.1741676892       -6.5674168597       31.1714520762
  H         4.5657658440       -7.8163538446       31.9035513709
  O        10.5537394516       -2.4047124180       32.0994987772
  H        10.5860044380       -1.8196686838       31.3219193600
  H        10.1233142346       -3.2214632947       31.7896829331
  O        10.2696215862       -5.2103992532       34.3896965662
  H        11.0954050959       -5.3381164692       33.8412088011
  H         9.6322843603       -5.2801818545       33.6987405758
  O         1.7572919636        6.6555997493       35.6593608915
  H         2.6716994899        6.4248869229       35.4264924560
  H         1.2087358317        6.4836816007       34.7687800985
  O        -0.5942978301        0.1120326500       45.2529981985
  H         0.2084296326        0.6285634832       45.0527303657
  H        -0.4288526709       -0.3446807825       46.0929222045
  O         7.6329138099       -2.6541959552       36.0248764999
  H         8.1340508999       -2.4511330778       35.2148316330
  H         7.2158682719       -1.7870788794       36.3290793317
  O         7.0429217401        2.1933438656       36.2260923703
  H         6.4741315950        2.9839414855       36.2810401518
  H         7.8510322172        2.4363139644       35.7133213530
  O        17.1408196384       -1.1816155712       38.6912851982
  H        16.9583568400       -0.3665458426       39.1856969442
  H        16.2601020849       -1.5538711389       38.4317538365
  O        15.5709897596       -4.4322222318       32.5987091172
  H        14.7067032849       -3.9848873533       32.5865863745
  H        15.5606832420       -5.1456892753       33.2672720098
  O        10.3126397803        2.7984413166       42.0898509482
  H         9.9127659990        2.7248358107       41.2201211778
  H         9.6672315734        2.2969801209       42.7472350307
  O         6.1874869924       -0.2237617622       36.4504380248
  H         6.6288289468        0.6643639057       36.4210617498
  H         5.7408861813       -0.4385841991       37.3216749180
  O        10.1196327015       -6.7470637964       41.9605688556
  H         9.6239090798       -6.3083323590       42.7198412010
  H        10.1781254488       -7.7419415585       42.1854926715
  O        14.8251358822        4.2778255833       27.1829812919
  H        14.8396101038        3.4959538188       26.6058981610
  H        14.3399983047        4.8885555235       26.5531327274
  O         4.7868071282        4.8507157356       40.9679426339
  H         5.3328620404        4.8763622607       40.1538613787
  H         3.8516392234        4.7005229942       40.6513484947
  O        13.9762707119        0.4396482300       41.5568722617
  H        13.5718534362        1.0782294675       42.1731126980
  H        13.9677019638       -0.4119212064       41.9832848425
  O         5.7656133623      -10.1631183377       29.3112115177
  H         5.4087250897       -9.2582763478       29.0692733736
  H         5.2602377392      -10.3867964835       30.1305169790
  O         3.2637882090        2.0588430673       37.7066468966
  H         3.9788422118        2.5764560531       37.3843272427
  H         3.5498576581        1.7379677422       38.5912060863
  O        13.1608230766       -4.0922600356       27.1209410792
  H        13.8894828830       -4.0306928058       27.8410293661
  H        13.4954251307       -3.5165157321       26.3825522435
  O        12.1354800038       -8.9784940221       45.9825406220
  H        11.9906026118       -9.5485248119       45.1240503805
  H        11.5420725992       -9.3691602245       46.7074463501
  O        13.3369128118       -2.5700086613       32.8692425479
  H        12.3727698302       -2.3912462396       32.7730598848
  H        13.5557761915       -2.4758704725       33.8201906198
  O         6.4051567198       -5.1842337027       36.3928315974
  H         7.0403787459       -5.8334468068       36.6916709514
  H         6.8825275776       -4.3176315963       36.3775652094
  O         3.9120087017      -11.4154060863       40.1976399122
  H         3.0964214051      -11.6263520213       40.7104458436
  H         4.6624341075      -11.0465586282       40.7689520114
  O         1.8330265008       -2.1497498706       38.2685890711
  H         1.1884395218       -1.5076299752       38.6157104675
  H         1.8860234623       -2.0868276696       37.3259354983
  O         2.2434393070       -1.7444254627       43.2750474667
  H         3.1573681580       -1.3831643186       43.3076503101
  H         1.8345408029       -1.7147607754       44.1386659332
  O        12.7764925272       -6.2272657664       33.6010523989
  H        13.2440888314       -5.9648218548       32.7566375121
  H        12.6936176815       -7.2643539853       33.5890575889
  O         4.5003002237       -0.1868421040       31.0066406165
  H         5.4500005010       -0.1824854260       31.3628851455
  H         4.0287403212        0.6504929723       31.3955166626
  O        17.2779484087       -1.4046207535       34.5783669486
  H        17.6708512864       -1.8324636631       33.7592770065
  H        18.0068059094       -1.2162676460       35.2034383492
  O        16.2365795042        2.2315215753       31.4732162512
  H        15.7155730829        2.7181431105       30.7882600229
  H        16.0519019275        2.6663051174       32.4037636451
  O        10.7467771529       -7.9068636397       38.0017828701
  H        11.5602006945       -7.3804941340       38.0975175824
  H        10.1961937009       -7.3796982335       37.3921530282
  O        12.8279620837       -0.7761568454       35.2618998165
  H        13.7871691978       -0.5361274197       35.2141439294
  H        12.6936660558       -1.5423770183       35.8804316101
  O        13.0400417067       -5.9938951938       43.0694745362
  H        13.5453946273       -5.1755670001       42.7483208598
  H        12.1829478249       -5.9502801780       42.6236301142
  O        16.9449963532       -6.2032531034       34.9365618706
  H        17.5910779169       -5.7213223811       35.5174790580
  H        17.3359700598       -6.2674178796       34.0136302632
  O        -2.5872820540       -0.9223208445       26.2229859966
  H        -3.2890486026       -0.5976926016       26.7934433490
  H        -1.7547372376       -0.8050025589       26.7297633545
  O        12.5307507163        2.3143029340       43.5071840305
  H        13.2561554477        2.9388756033       43.2422324048
  H        11.7845995902        2.5380114305       42.8274547246
  O        10.2541394979        0.0338877049       48.5117900191
  H        11.2126719653       -0.1440038553       48.2955366959
  H        10.1414149422       -0.4514621319       49.3316043953
  O         8.7316276916        3.1124372722       33.9740184088
  H         8.8650320042        2.5037207542       33.1457717710
  H         9.4778653150        3.0176150741       34.6178002865
  O        15.0152593931        3.2814107117       33.7467816636
  H        15.0933542523        2.4480522714       34.2274911215
  H        14.0127895517        3.4439573001       33.6797265628
  O        21.3279883259       -1.3701861891       34.0721594316
  H        21.8664354039       -0.8412246993       34.6907631397
  H        21.9944502345       -1.8051920458       33.4783549914
  O        12.7589280303        1.9656720533       37.9400632910
  H        12.6649350994        2.8555544872       38.2166639696
  H        13.7341938305        1.9324936323       37.7053446056
  O        14.6777958815       -4.2070591189       41.9247056516
  H        15.5744675265       -4.7063013793       42.0763212512
  H        14.7169434302       -3.2969067472       42.3375969421
  O         5.1211396791        4.1616406993       36.7560625813
  H         5.7778448003        4.6723124768       37.2421533389
  H         4.8349257867        4.6200290078       35.9387097266
  O         0.0655043323       -0.2804718021       39.3299386823
  H         0.0210748980        0.6376495634       38.9080277967
  H         0.3886910732       -0.0216468351       40.2238189254
  O        17.7978589543       -2.8467781184       32.3772661448
  H        16.8792643223       -3.2782674841       32.4600712349
  H        17.6452141936       -2.2722400287       31.6194218094
  O         9.4918865462       -3.7427909778       38.1333887334
  H         8.7937438142       -3.2548154886       37.5896815676
  H         9.7613255485       -2.9580251751       38.7093692549
  O         2.7829659802        0.3565086392       35.2499722659
  H         3.1574408526        0.8428123609       35.9704032871
  H         3.5770616637       -0.2019162796       34.8766113360
  O         9.1673648427        1.5193647740       44.1700976738
  H         9.9239267235        1.0275378182       44.5958094486
  H         8.4095702039        0.8960519077       43.9837270914
  O        10.7359084499        2.9130637917       35.8349308681
  H        10.6098035225        1.9945311716       36.0529606887
  H        10.9021489328        3.4304016178       36.6500875046
  O         8.7987670360       -5.1475195793       43.9061907020
  H         7.9879402473       -4.6741873799       43.5368125320
  H         8.3159729745       -5.7594723926       44.5074476728
  O         4.6075771852       -5.2757928327       42.2942800364
  H         5.4688471121       -4.7963891522       42.3359352013
  H         4.7981827887       -6.1171507026       41.7324718661
  O         0.7326971548       -6.4725280554       38.1146408157
  H         0.8711978913       -5.5740380267       38.5943262048
  H         1.1639806098       -6.2462153800       37.2092576608
  O         8.9223405782        2.5640149026       39.2460188212
  H         8.4418955233        1.9849430304       38.6173554622
  H         9.6368358458        3.0454934453       38.7137112297
  O         9.9896561671       -1.0385376383       42.1684708443
  H        10.2736285747       -1.7586462184       41.5728521877
  H         9.7453325472       -0.3040451615       41.6008357915
  O        20.8818390100       -5.6365499351       27.5658737681
  H        21.2701656066       -4.9633019880       26.9189482367
  H        21.6147278164       -6.0822290220       28.0251755227
  O         7.0691554299       -4.1227453976       29.6351137123
  H         7.5113520320       -4.7199813182       29.0090693948
  H         6.7390716115       -3.3095375067       29.2479500020
  O         7.6591587447       -6.8336784945       33.3375562368
  H         8.2736828637       -7.5586639497       33.5775401564
  H         6.9013482246       -7.1433266422       32.8475465340
  N        11.8340892551       -2.9703331528       36.3630623385
  H        12.3988478946       -3.6865075605       36.9495449905
  H        10.9583332423       -2.8548673453       36.9845370362
  H        11.5764487931       -3.3991838459       35.4551048489
