     193
 CELL 12.4294 12.4294 12.4294 90.0 90.0 90.0 i =    80520, time =    40260.000, E =     -1096.5372034134
  O         5.8319347297       -1.6939083292       39.1938734982
  H         5.0982039146       -1.5505919589       38.5406058773
  H         5.6459481245       -1.3379080540       40.0687515497
  O         6.2849808359       -7.8112576537       37.3937936020
  H         6.8553216733       -8.5773944540       37.1743945835
  H         6.7114191496       -6.9461052203       37.4900316441
  O        10.6079111114       -3.5420419936       39.0115767578
  H        11.3780661006       -3.9055946984       38.4811779599
  H        10.3914719697       -4.2798520766       39.6390066169
  O         8.1347038225        0.1210084758       38.5927460967
  H         7.2552553942       -0.3215996773       38.7073053732
  H         7.9411394332        0.9715248808       38.0350952233
  O        -3.6102009135       -6.1351222658       34.8237372558
  H        -3.5433413780       -5.2950824874       35.3138603025
  H        -2.8933082865       -5.9994752688       34.1376135530
  O        15.4155089660       -3.3407919035       46.0547810376
  H        14.8768658075       -3.9285414356       45.4774412459
  H        16.0756508344       -3.9178739391       46.4830780685
  O         5.6937718308       -0.9422691591       29.4554470035
  H         4.7757622803       -0.6743273130       29.7526889892
  H         6.1052041002       -1.0450824349       30.3175206013
  O        13.2716768555        3.3363282251       40.6892356307
  H        12.7588154867        4.1904294306       40.7661416504
  H        13.5790524297        3.4157282916       39.7521747838
  O         4.0295479816       -7.4242921094       30.8336333995
  H         3.8285484358       -6.6497557827       30.2374184213
  H         3.4324691428       -8.1095597087       30.4754029161
  O         9.4920255930       -2.4116030244       30.0639983658
  H         9.7673458723       -2.1218902123       29.1642321894
  H         9.1466906926       -3.2996161031       29.9308704946
  O        10.1477771717       -5.7654316611       32.5981338937
  H        10.8627189688       -6.2876471800       32.1892521361
  H         9.3148173177       -5.8524935032       31.9700203677
  O         1.2572873655        6.5145331512       34.5827306796
  H         2.0452378478        6.1462331619       34.1353891942
  H         0.5337574439        6.4754810315       33.9266226071
  O        -1.9243687959        1.0134652174       42.7421181719
  H        -1.8063199308        1.2102348238       41.7564717528
  H        -1.5246252705        0.1497713704       42.8443413999
  O         6.8938079162       -2.7566990555       33.8119318489
  H         7.4102958569       -2.1951838215       33.1617044679
  H         6.4321812255       -2.0458849647       34.3577120394
  O         6.4090931046        2.3630881337       34.6366201884
  H         5.7007281750        3.0109692088       34.7153550126
  H         6.9441161421        2.6413870674       33.8792899343
  O        16.5226125924       -0.9372344052       37.0579178007
  H        16.2092760630       -0.1114652412       37.4779031364
  H        15.7340878419       -1.4988131399       36.7174680220
  O        13.8852605001       -4.4285097298       31.6750118323
  H        13.6613079517       -3.7733211558       30.9322912655
  H        13.3477945098       -5.2652050750       31.5168179843
  O         8.1895110721        3.0551327882       39.9474276584
  H         8.1086963325        2.2791008062       39.3636735033
  H         7.7473661295        2.6858761295       40.7803694353
  O         5.7490124264       -0.4668104486       34.8806528362
  H         6.1473876770        0.3917652516       34.7782609921
  H         5.3461686914       -0.4939137136       35.7823738532
  O         9.2169372504       -6.7742674563       39.7061731842
  H         8.8761709208       -6.1945109349       40.4311759743
  H         8.7827044093       -7.6655413711       39.8360366044
  O        14.0511749154        3.6647394339       25.7583389016
  H        14.3410173294        2.7036576884       25.5378929967
  H        13.3418670882        4.0416021799       25.2155933312
  O         4.1680251478        4.3728245885       39.1700484625
  H         5.0001418294        4.3489744166       38.6248977231
  H         3.3427115972        4.3042042292       38.6426607175
  O        13.3762708050       -0.6165329353       39.5808837564
  H        12.3995973504       -0.4461136105       39.6733540077
  H        13.5173239582       -1.2628014595       40.2842197423
  O         4.6380989197      -10.4575103001       27.7175504623
  H         4.3813335164       -9.4472044997       27.6579019299
  H         4.4135999682      -10.6299927784       28.6466221635
  O         2.5074612064        1.9397461299       35.6744168362
  H         3.1310909542        2.6649318760       35.4222853934
  H         2.7857242710        1.7051520964       36.5737200163
  O        13.0799187241       -4.2380108350       25.5032856155
  H        13.6374118121       -4.3876162986       26.2900030247
  H        13.5091728560       -3.6035791057       24.8810689339
  O        11.9349316184       -9.4428432081       44.1883244976
  H        11.3556942241      -10.0815611746       43.6428745612
  H        11.4505770989       -9.3165396410       45.0213355229
  O        11.6619010131       -1.5082530824       31.0561395894
  H        10.9809151956       -2.1965596336       30.9923316197
  H        12.0056808917       -1.3719081414       32.0081121217
  O         5.8679500032       -5.1608636546       34.0455256962
  H         6.6873252222       -5.6092461540       34.3624748074
  H         6.1473167952       -4.2802520603       33.8269655181
  O         2.6859922573      -11.3386134450       38.3718879242
  H         2.1150719998      -11.9376582312       39.0153004293
  H         3.2990264723      -10.8114462545       38.9714936851
  O         2.0155474576       -2.3792619959       36.0973912614
  H         1.3762991503       -1.6459768985       36.0769601990
  H         2.2295604649       -2.5601027638       35.1203564548
  O         1.4950334458       -2.2116342264       41.8657070973
  H         2.1460201967       -1.4802261607       42.1570028053
  H         0.7589422699       -2.0041188257       42.4761185818
  O        11.8127087532       -6.8816932317       31.0845540245
  H        11.7998908900       -6.7823711245       30.0335731801
  H        12.0151466235       -7.8938980369       31.2744953545
  O         3.2023890710       -0.3088769661       30.4134364593
  H         3.4224104700       -0.5425953150       31.3603738059
  H         3.1157151687        0.6475965987       30.2014399182
  O        16.7003426556       -1.3294950283       32.6443205252
  H        16.4071911381       -2.2024992851       33.0059020294
  H        17.3254943486       -0.9684597779       33.3075046570
  O        15.1674511034        2.5751556406       29.9989892789
  H        14.4782248911        2.8701420848       29.3512836944
  H        14.6535552207        2.4425466087       30.8132456945
  O         9.8919172916       -7.9645041151       36.4240738223
  H        10.7000872857       -7.4700669476       36.6577723274
  H         9.3240674559       -7.2714533191       35.9448089034
  O        12.1466858649       -1.0880114246       33.6729590671
  H        13.0788369335       -0.7091151612       33.9182746322
  H        12.1130643601       -2.0985888658       33.7514405061
  O        11.9212430581       -6.5876580270       40.8101446752
  H        12.5532001751       -5.9111965466       40.5606918858
  H        11.0352032534       -6.5177086923       40.3640479458
  O        15.9697157640       -6.7707050661       33.3840004373
  H        16.7452940849       -6.2039515982       33.4027521659
  H        15.9903923729       -7.1710367946       32.5016818160
  O        -2.4323224954       -1.0445572211       24.3304575742
  H        -2.8723146262       -0.5467998860       25.0618076536
  H        -1.4580871749       -0.7918563121       24.2492694293
  O        10.8379516418        1.8057158250       40.2940727908
  H        11.6778118374        2.2437992561       40.5185433613
  H        10.1660031719        2.4772360073       40.0416054312
  O        10.0012749706        0.4027191643       46.6790580899
  H        10.7186228984       -0.2683027038       46.3955789969
  H         9.7975412135        0.0404092269       47.5929197302
  O         7.8998147720        4.0434044586       32.4029271909
  H         7.8555545015        3.4609126275       31.6515416331
  H         8.8257096720        3.8565499188       32.7179610190
  O        14.2187591769        2.0517830048       32.7176759659
  H        14.1849180418        1.1230695600       32.9112761305
  H        13.3702533495        2.3910081001       32.5614973213
  O        20.1659905026       -1.0590857700       31.6753492343
  H        20.7505233233       -0.3889848848       32.1357577774
  H        20.8552388982       -1.5712378054       31.1339697812
  O        12.1940252331        2.0325821802       35.8995118934
  H        11.7590356645        2.7256580109       36.4806923224
  H        13.1723048785        2.2385674974       35.7791548783
  O        14.2632138630       -4.6925930971       40.3049056753
  H        15.1943617009       -5.0160660509       40.3607998136
  H        14.4204052706       -3.8423609956       40.7761093491
  O         4.3648987610        3.8587072201       35.5138015589
  H         4.9569098585        4.3356422516       36.2007690452
  H         4.1641398931        4.4445847793       34.7409212593
  O         0.1193684401       -0.6120598166       36.8793786380
  H         0.1362649722        0.3462363100       36.6483663119
  H         0.3543350240       -0.5699623383       37.8483788873
  O        17.9572041567       -4.2482756082       30.4247866940
  H        17.5810003660       -4.8340451637       29.7286227772
  H        17.7472171288       -3.3530609276       30.0516734289
  O         8.6119452701       -3.5254279917       35.9579511910
  H         8.2260047126       -3.1446813614       35.1630946609
  H         9.1233153687       -2.8466938237       36.3961316889
  O         2.3248114025       -0.3195449892       34.2653984015
  H         2.5763328162        0.4364451815       34.8031006274
  H         3.1038027077       -0.5091360033       33.6533300397
  O         7.7772332682        1.9566753461       42.6293760017
  H         8.6288239502        1.5728450529       43.0135192671
  H         7.1010844831        1.2169923700       42.6235282545
  O        10.3344147801        3.1232071841       33.7648272373
  H        10.3918231036        2.1117137868       34.1214306112
  H        10.3386982162        3.7913618232       34.5461388988
  O         8.3000695925       -4.9389731470       41.8429150520
  H         7.5583762418       -4.4818509956       41.3085640578
  H         7.8289663295       -5.2189718871       42.6592721647
  O         4.5048661505       -5.5852542932       40.7610608465
  H         5.2918656445       -5.1745940471       40.2892198084
  H         4.4730870916       -6.3842123570       40.2044512117
  O         0.0775781372       -7.0542667833       36.7298651950
  H         0.2024387308       -6.2046702564       37.2493719778
  H         0.6854962571       -6.8462863009       35.9784805048
  O         7.9060464226        2.5589319509       36.8264718685
  H         7.5139527083        2.2586248425       35.9793317175
  H         8.8993254718        2.7677662668       36.6601284153
  O        10.5844430569       -0.9861310070       40.1804453366
  H        10.6345251220       -1.8046161290       39.5847168320
  H        10.1797998893       -0.2397268752       39.7319538517
  O        20.1351119877       -5.5415323673       25.2743914622
  H        20.3864055528       -4.7190014362       24.7427806829
  H        20.9313832730       -5.8763535832       25.7609818415
  O         6.3936463619       -4.3306896248       27.2413020531
  H         6.8957479316       -4.6809992864       26.4481314373
  H         6.1967476916       -3.2916195942       27.0628093966
  O         7.4963784531       -5.8861175384       31.6920480747
  H         7.5704995718       -6.8599836322       31.8919852107
  H         6.6225279058       -5.5795040698       32.0850302947
  N        11.7161264218       -3.7659195071       33.9614406253
  H        11.4264291047       -4.3613466768       33.1746278921
  H        12.4415824478       -4.3157409112       34.3208285510
  H        11.0540642703       -3.7791109033       34.7405421719
