     193
 CELL 12.4294 12.4294 12.4294 90.0 90.0 90.0 i =    70920, time =    35460.000, E =     -1096.5060004152
  O         3.5661037368       -1.5738104358       35.1559705093
  H         3.7964468871       -1.0069363520       34.3725524310
  H         3.0753326552       -1.0120154136       35.8170005730
  O         4.4141819760       -9.5660628053       31.6185281193
  H         4.9382622619      -10.2367092199       32.0854060450
  H         4.5703754736       -8.6606468080       31.9996993239
  O         8.9207413707       -5.0647875516       33.5386957991
  H         9.7984959603       -5.3106374617       33.2483445105
  H         8.4171415247       -5.8646992719       33.2824762491
  O         4.8916312929        0.1618348327       33.2487516221
  H         5.3496066227        0.7055277514       33.9745806188
  H         5.5732277423       -0.2647170559       32.7018802352
  O        -5.5455250838       -6.2831696466       29.7886495267
  H        -5.8382757766       -5.4852836952       30.2198158878
  H        -5.1956710109       -6.0366905384       28.8890020336
  O        12.1192678717       -4.6684176726       40.0980639670
  H        11.6669564348       -5.0515345538       39.2991284526
  H        12.1499389676       -5.4224837488       40.7340657386
  O         5.7936050530       -2.0937063151       24.2458530637
  H         4.9530720214       -1.7964505239       23.6963060686
  H         6.5287708569       -1.9097836818       23.6230314405
  O        11.7286934727        2.3497426619       35.0897780582
  H        10.8861925654        2.0375333028       35.5714384354
  H        11.6752747100        2.4388622001       34.1146432468
  O         0.4541202918       -7.6469339509       23.8298058984
  H         1.3268720891       -7.5150876790       23.4064670670
  H         0.1349473344       -8.4702229714       23.4833576435
  O         5.9668705849       -4.0382068629       26.3937548360
  H         5.8335690927       -3.5183759568       25.5999491686
  H         6.6986291597       -4.6544515436       26.1605501625
  O         7.6820935866       -6.1642574629       27.0022152719
  H         8.5690076608       -6.5596254047       27.0459030127
  H         7.0865621866       -6.8452837836       26.6765580555
  O        -0.3582605752        5.3153103683       28.8882424301
  H         0.4051554501        4.7437685114       28.5536928842
  H        -1.1522505327        4.9562846434       28.4173521116
  O        -4.0430886776       -1.5202641948       35.5896202057
  H        -3.7202927750       -0.6671083187       35.7521188015
  H        -3.6021098027       -2.0626120328       36.2638940137
  O         4.1279438453       -4.2596872368       28.1982249927
  H         4.9447295285       -4.0889241473       27.5919552188
  H         4.3051311142       -3.8309585523       29.0221118188
  O         3.7576789330       -0.5952436267       27.9762219409
  H         3.8094721773        0.3431864115       28.3941326315
  H         4.3870932141       -0.6627738046       27.1610237861
  O        14.1639135312       -1.5496845955       32.3514200136
  H        14.1695782340       -1.0379810582       33.1282341422
  H        13.5741437512       -2.3346444661       32.4492009539
  O        11.2237589187       -6.0485506763       24.8987391027
  H        11.8260636341       -6.3792466810       24.1543440446
  H        10.3649302937       -5.9374141252       24.4788491728
  O         7.5699434774        2.6231566285       34.7211749751
  H         7.3618121234        2.2587350515       33.8856477585
  H         6.7688719174        2.3601176164       35.2736492863
  O         4.4133793029       -2.0988782437       29.9784176483
  H         4.0813014369       -1.5253394294       29.2229420068
  H         3.5102242091       -2.3032235511       30.4677612491
  O         7.0232645806       -7.1214127440       33.5609266780
  H         6.5105709735       -6.8619340782       34.3768402046
  H         7.3977145030       -8.0355222968       33.6800857132
  O        12.5188961541        2.6087920010       19.8432933477
  H        12.7794019736        1.8057594307       19.2879696485
  H        11.8975468892        3.3256620669       19.3995619275
  O         2.3555570013        3.5376864909       33.6755108691
  H         2.8622326821        3.0454618164       32.9622602313
  H         1.4702226773        3.5135657661       33.2796869049
  O        11.3753938055       -0.2837265730       33.8701488646
  H        10.5664343400       -0.0049195661       34.3858832772
  H        11.6590306005       -1.0590583008       34.3899119094
  O         3.9289126871       -9.2629486116       24.8951741825
  H         3.8997767826       -8.3063850979       24.5817978128
  H         2.9782817258       -9.4773700424       25.1031750771
  O         0.8532334657       -0.1010447948       30.0981544292
  H         1.6007924630        0.5560030439       29.8728064518
  H         1.2069607718       -0.5638213866       30.9126830135
  O        11.4098039849       -5.5848678902       20.3111247416
  H        12.0844023692       -5.3535351307       21.0370927935
  H        11.5120621307       -4.8268368561       19.6730914118
  O         8.7055134451      -10.3576264610       38.5451365806
  H         7.9426049594       -9.8047415126       38.5183335571
  H         8.5081869002      -11.1358810377       39.1745867710
  O        10.2582813826       -2.9540708184       24.7870933766
  H         9.9245896270       -3.8294391067       24.9125892205
  H        10.0813335104       -2.6057112285       25.7096185911
  O         3.9175400536       -6.9224877544       27.9275283329
  H         4.6491938371       -7.5501432943       28.3755757635
  H         4.0108543765       -5.9385454309       28.2486333617
  O         1.8992979347      -11.7640274704       34.6507728465
  H         0.9373366303      -11.7621126759       34.4483082999
  H         2.1466438609      -10.8903346697       34.2582529456
  O        -0.1976353535       -3.4069098279       30.9672283313
  H        -0.5759533654       -2.5143621296       31.0497428851
  H         0.2992218202       -3.4206587623       30.1284123557
  O         0.0494953407       -2.0215334692       35.7053898589
  H         0.6086749521       -1.5296947058       36.3746176551
  H        -0.6773073295       -2.3676290908       36.3383263685
  O        10.2148346146       -7.7345773087       27.0160592860
  H        10.8108644850       -7.4563235141       26.2861376607
  H         9.8810639430       -8.6010398483       26.7171774643
  O         1.8190140097       -0.9788572359       24.8973634960
  H         1.8604754169       -1.5504540984       25.6871610322
  H         1.5700232392       -0.0738976539       25.2267040253
  O        14.1296992105       -3.0330862193       26.8888789755
  H        13.4816063351       -3.7277811279       27.2021826854
  H        15.0126970467       -3.1113320447       27.3740098586
  O        13.7880639309        1.8611028517       25.2653696180
  H        13.6589862936        1.6441857883       24.2861758141
  H        12.8570241776        1.9456945359       25.6998129034
  O         8.6068194607       -8.3862572198       30.7801784258
  H         9.5261406089       -8.3780229916       31.0980694416
  H         8.3263272009       -7.4803688068       30.7289645770
  O         9.6017597848       -2.0584476416       27.2407941061
  H        10.4745895791       -1.6317930387       27.4308093326
  H         9.5135166235       -2.7809212071       27.9772016041
  O         8.6575623647       -5.3798195229       36.2362561270
  H         8.7385249113       -5.2425374994       35.2815457471
  H         7.7226177044       -5.6873142571       36.3703473052
  O        14.0435010050       -8.6086673995       27.8816735197
  H        14.8936299944       -8.0266246769       27.8701681254
  H        13.9674590689       -9.1654396957       27.0437189782
  O        -4.3732640296       -0.3556888138       18.5447330468
  H        -4.3669156061       -1.1260284290       19.1919050925
  H        -3.4064202314       -0.2659853002       18.3594574082
  O         9.4019053387        1.1344298304       35.8289254825
  H         9.3179437762        1.4537450561       36.7225409895
  H         8.8029195399        1.7283221895       35.3266229115
  O         8.0814324106       -0.0807038241       40.1184842369
  H         8.4389303873       -0.9659348150       39.8592827959
  H         7.8699858861       -0.0941510324       41.0775059394
  O         6.2515014703        3.8171599054       26.5679949791
  H         5.5376621319        3.3863651636       26.0683020085
  H         6.0746682022        3.6651049709       27.5417320614
  O        11.4986670231        1.7137436245       26.6946609230
  H        11.6294987835        0.7801410891       26.8450494388
  H        10.6028960784        1.9250316934       26.3497920593
  O        18.2946498279       -0.0721852156       26.0347149774
  H        19.0926119986       -0.1148658966       26.6912605670
  H        18.3933065924       -0.9776903982       25.5960719434
  O        10.0836732632        1.6544912266       29.3955158717
  H         9.7010177194        2.4933860663       29.7378412778
  H        10.5939753122        1.9532264475       28.5867973090
  O        13.1976182880       -4.9083890397       34.7579356274
  H        13.9822245446       -5.2814689274       35.1774344077
  H        12.9350743123       -4.0375427748       35.1519284531
  O         2.8713197087        1.6996008525       29.5017381016
  H         3.3511552679        2.2746077027       30.2070492135
  H         2.5423165790        2.3222627086       28.8736845562
  O        -1.4542560029       -1.0876751883       31.0219521851
  H        -0.9138761627       -0.3957362438       30.5971910916
  H        -1.6377105826       -0.9526325075       32.0350677381
  O        15.3404603622       -4.1811977642       24.4999457651
  H        15.0085306009       -3.8030176250       25.3365424063
  H        15.0259675034       -3.5633455044       23.8680058073
  O         5.9566190491       -4.2025158847       31.3065576181
  H         5.7057466143       -3.3702282138       30.7878538319
  H         5.7010884305       -4.0729945775       32.2263083589
  O        -0.1813160234       -0.8706810419       27.8411506129
  H         0.1323800335       -0.7108787327       28.7897405268
  H         0.5362271576       -1.4735385542       27.4882440147
  O         5.5905438274        1.3370559986       35.8254836043
  H         5.8807734181        0.9552743099       36.6847384933
  H         4.7624684851        1.8441649496       36.1284852736
  O         5.7037164449        3.8783541263       29.3766005135
  H         6.1475371447        4.6190196276       29.7699848522
  H         5.3368940136        3.2036331204       30.0074957687
  O         5.8743426284       -6.0440477322       35.9307647103
  H         5.5207874787       -5.2204644801       35.5677232591
  H         5.3389637151       -6.2289206981       36.6867810492
  O         3.2578150998       -6.6643152454       34.7407575106
  H         4.1116453463       -6.8522827849       35.1561259787
  H         3.1067301331       -7.4188025305       34.1426226362
  O        -1.3171206252       -7.8114461447       31.2555458458
  H        -0.9630789825       -7.0682174508       31.8427094237
  H        -0.9518572170       -7.6949194560       30.3403691997
  O         7.0285448131        2.1601875218       32.0391621700
  H         7.5633527391        1.2816445663       31.8794444088
  H         7.4080749667        2.8130340169       31.3847409384
  O         8.7012364826       -2.4938992723       32.9552579880
  H         8.5014386978       -3.4255987595       33.1796505580
  H         8.6064965496       -2.0568618388       33.7950429755
  O        17.3028484609       -7.0968242587       19.7181034538
  H        17.2843075192       -6.2473930725       19.1689267249
  H        18.2184539090       -7.0141194289       20.2290953656
  O         4.6613991666       -4.0700590334       21.7125701316
  H         4.2407739457       -3.2915373833       22.1477447013
  H         4.0154723202       -4.7864578927       21.5886031925
  O         4.1334586535       -6.7312324696       25.2813240230
  H         4.0736966455       -6.7465424291       26.2538254372
  H         3.5170329018       -5.9565376351       24.9736937288
  N         9.2997647112       -3.9522654391       29.1931539496
  H         9.2916749543       -4.9526113188       29.1766239412
  H        10.2088374244       -3.6569586274       29.6184253163
  H         8.5362624908       -3.7746881311       29.8710372952
