     193
 CELL 12.4294 12.4294 12.4294 90.0 90.0 90.0 i =    56520, time =    28260.000, E =     -1096.5343570235
  O         1.5877564383       -1.3683846862       27.3181425177
  H         2.4023436468       -0.8735718083       27.1088177509
  H         0.8545256645       -0.7277807942       27.2958188235
  O         3.6563993159       -9.0542201919       23.3177765312
  H         4.6485081114       -9.1981862745       23.3293287962
  H         3.4474391232       -8.1138126324       23.4208139957
  O         5.5978873871       -6.5412866252       24.3507240829
  H         6.1160406135       -6.6887273759       25.1672140662
  H         4.6634706779       -6.3330294976       24.5480732561
  O         3.8602040609        0.2598949939       26.7477032983
  H         3.9820435724        0.7223950068       27.5930098720
  H         3.3205744879        0.9588075769       26.2119093030
  O        -7.8401681417       -5.3952296645       20.3904776617
  H        -8.4615421876       -4.7447974808       20.8134131143
  H        -7.2217194837       -4.9492150198       19.7359025391
  O         8.6950269327       -6.6307236211       29.9171203114
  H         8.0259687595       -5.9479501395       29.7303830681
  H         8.8623101653       -6.5558084375       30.9016192772
  O         1.2327617755       -2.5711857191       17.5252474734
  H         0.8444086945       -1.8358786057       18.0580429629
  H         1.3780044063       -2.2017215673       16.6272945095
  O         9.3053448802        3.9527129819       27.4768048372
  H         8.4975561240        4.5124249764       27.3823094789
  H         9.1763269879        3.3709809640       26.6628369937
  O        -1.6030316601       -6.3754999157       14.8005833625
  H        -1.4031370991       -5.9533593657       15.6668627756
  H        -2.0350076127       -7.2693650313       14.9842879131
  O         4.7061740077       -2.6128633088       16.9166671997
  H         3.8926121208       -2.6173253412       17.4829587632
  H         4.3210290321       -2.8719750854       16.0355603648
  O         5.4602552790       -5.6020978586       15.6749813465
  H         6.1096500675       -4.8835985064       15.8106038549
  H         5.2191413408       -5.9178759379       16.5499525708
  O        -3.4297266615        5.5849034118       20.5902910223
  H        -3.0781190486        4.6656391957       20.6698813809
  H        -4.4429678717        5.5766287274       20.7419120465
  O        -6.2589623029       -1.5752684870       25.8213037051
  H        -6.8663328669       -0.9469356751       26.2422717520
  H        -6.6903214650       -2.1271131164       25.1098412098
  O         1.7615458736       -4.5327090742       19.6870757667
  H         1.5895005797       -3.9966256836       18.8652735785
  H         1.0538364003       -4.1791103558       20.3092088207
  O         1.5100672989        0.0587315902       19.7452426641
  H         1.7291492356        0.7730684594       20.4411776902
  H         1.8302871689        0.4503728328       18.8216508482
  O        14.5927309695        1.9412332702       25.5100935475
  H        15.1367975094        2.3353787900       24.8037633829
  H        13.9109453174        1.4376332766       24.9656133606
  O         7.4073680159       -3.6051489835       14.8279717122
  H         7.8177282870       -4.1206413856       14.1069412195
  H         6.8026146483       -2.9306262631       14.3651033850
  O         5.7492096987        2.5583720730       26.4936206047
  H         6.3277149009        1.9448908435       26.9869831264
  H         4.9980720611        2.7006581823       27.1420688229
  O         3.7137521485       -1.8289324510       19.8578251274
  H         2.9920927599       -1.1491940224       19.7543125410
  H         4.3893972834       -1.3301989833       20.2696250885
  O         2.8713156087       -6.5573775386       24.4562405552
  H         2.2087580329       -5.9169378929       24.0507784977
  H         2.3535121438       -7.0974733657       25.0682439329
  O         9.1858586003        2.6974886680       12.7245928229
  H         9.5363048360        1.8504003202       12.3716975377
  H         9.3530652979        3.3820496406       12.0503933872
  O         0.5250468723        4.0658601685       25.1970937481
  H         1.0558551080        3.2389863155       25.2686712515
  H         0.1849869420        4.2378750106       26.0890050454
  O         9.3335561530       -0.5803477798       28.5165878458
  H         9.8235572218       -0.4004233080       27.6877447941
  H         9.4953441637       -1.4757424456       28.6842291615
  O         1.2121020811       -8.1319327974       15.5090909505
  H         1.4357064365       -7.1809029911       15.8928953507
  H         0.7376182170       -8.5686653757       16.3383116748
  O         0.5880321569        0.7001786592       23.6821665961
  H         0.9843870420        1.3600972663       23.1073743864
  H         1.0964127277       -0.1368047734       23.4804213072
  O         9.2616432072       -5.0574183839       13.1026752239
  H         9.8445695539       -5.5371218842       13.8078183356
  H         9.8484955244       -4.4094186145       12.6681764319
  O         6.9916482031      -11.3806298038       28.4081041986
  H         6.4192208158      -11.8506901935       29.0199243451
  H         7.9211338699      -11.8322518537       28.5328697661
  O         6.2962374922       -4.5860983626       18.4153793461
  H         5.7167200732       -3.9597218181       17.9665042257
  H         6.9707105866       -3.9772595000       18.7327953831
  O         0.4226139797       -7.5643730842       20.2803189233
  H         0.2700180939       -7.4453488039       21.2254117433
  H        -0.0563741069       -6.7858957374       19.8099514381
  O        -0.0154065030      -11.1961049417       27.3148643797
  H        -0.4441811123      -10.7316530367       28.0945902498
  H         0.7257957493      -10.6049353358       27.0643621782
  O        -1.7631973418       -2.8735078765       24.0945226841
  H        -2.2849134220       -2.0817644092       24.1364426646
  H        -0.8328683174       -2.6597039061       24.3687744248
  O        -2.8435038029       -3.2285094210       28.9986732874
  H        -3.4802138756       -3.4330610788       28.2882524024
  H        -2.0611389031       -3.7225211179       28.7484088988
  O         7.3711335006       -9.1208365135       17.6296830007
  H         7.9295056629       -8.3601555316       17.4000078363
  H         7.4709888188       -9.7793436649       16.9090854222
  O        -0.8483199486       -1.2611677917       19.6531142622
  H        -1.5754203156       -0.6850194719       19.3752485329
  H        -0.0652798931       -0.6171071638       19.7313322301
  O        10.9740291126       -5.5130662239       19.7669531587
  H        10.1084943812       -5.8093187274       20.1259830542
  H        11.3477572943       -4.7876967766       20.2417760880
  O        11.0102854956        2.4909574540       16.7807315514
  H        10.3144367265        3.0058900929       16.1835258632
  H        10.5137914661        2.0426957121       17.5066478195
  O         6.5024584085       -6.8537437305       21.7476363238
  H         6.2961824067       -6.7312026150       22.7077609090
  H         5.8932642115       -6.2409713242       21.2582253353
  O         8.2501953241       -3.1603790075       19.2633819065
  H         9.0749274144       -3.1693015113       18.7596491339
  H         8.4312839530       -3.3619530819       20.2584690583
  O         3.1474329455       -4.1598099763       26.9891342800
  H         3.7272927937       -4.0862090938       26.1798603212
  H         3.3435946762       -5.0456808581       27.4338255735
  O        10.5857531639       -9.3169265266       20.5963772596
  H        11.3366812963       -8.7883323286       20.2316106188
  H        10.0245103739       -9.8232594720       19.8854368620
  O        -3.9825687937       -0.8657383592       12.0768476464
  H        -4.8789418923       -1.0052294180       12.5171661596
  H        -3.4401999989       -0.4206585110       12.7135417915
  O         7.0104907624        5.0711720555       27.0151757455
  H         6.3227456413        5.5207975577       27.4807598924
  H         6.6106739327        4.2323223266       26.7054808492
  O         5.6318514639       -0.1630742916       30.7592334849
  H         5.3749178144       -1.0872503337       30.4722092730
  H         6.4994585086       -0.2703256763       31.2118516133
  O         5.0883974928        4.7816207416       17.7357345960
  H         5.9331807686        4.2640198552       17.6970535840
  H         4.4984064532        4.5125431820       18.4870445044
  O         9.1307999202        1.6768668275       18.8245949391
  H         8.7861262551        0.7586479712       18.9631904381
  H         8.3441163674        2.2244376029       18.6356282354
  O        15.2753114315        0.8285956747       17.5617920589
  H        15.5681200244        1.6835468741       17.0934849131
  H        16.1231265582        0.3725800874       17.7649936526
  O         8.0995779444       -0.5181293049       19.8319416283
  H         8.1376668836       -1.5014296660       19.8823180036
  H         7.9104692756       -0.1343751280       20.7501144203
  O        10.7778254814        0.3109365166       25.3925933492
  H        11.3717219564        0.5678839432       26.1194353189
  H        11.2971396194        0.4284632326       24.5220591444
  O         1.9666262885        2.3140969067       21.4091101142
  H         2.6017307291        2.6118141760       22.1159750853
  H         1.5474936462        3.2199372557       21.1107664279
  O        -5.5705628652        0.1759182138       22.2471640806
  H        -4.9662291773       -0.0029428480       23.0380526757
  H        -5.9827321614        1.0127514905       22.5921441928
  O        11.8206227138       -4.7730999791       17.2696644649
  H        11.3754370460       -5.0299910122       18.1152085231
  H        12.2999798909       -3.9468886237       17.3921578126
  O         3.3786162012       -3.3430299333       22.0741004219
  H         3.3504537692       -2.7070126130       21.3110917260
  H         2.4608417804       -3.4068037192       22.4317646188
  O        -0.5088047814       -3.3335735710       21.3673589198
  H        -0.9609444137       -2.5633241715       20.9264059759
  H        -0.7682963817       -3.4372748234       22.2906704788
  O         3.7966613110        3.1247989165       28.4010296108
  H         4.1766295973        3.7778186888       29.0207476546
  H         2.9624233397        3.5669444601       28.1087688027
  O         2.7679122807        5.1822769636       18.8975639236
  H         3.1932408774        5.8499408558       19.4647417321
  H         2.0165458030        4.8556941629       19.4804760504
  O         0.4764692050       -4.6693419763       26.1390900528
  H         1.3019299969       -4.4426653980       26.6142531078
  H         0.0871592500       -5.5119798532       26.4916557455
  O         0.7940356341       -1.8578320584       24.5427647276
  H         1.2450567349       -2.6917151526       24.3162712965
  H         0.9716284662       -1.7360877735       25.5073151329
  O        -2.9721830902       -7.2752462272       23.6590169011
  H        -2.9860317312       -6.4623623087       24.2460094281
  H        -3.7363153773       -7.0845138777       23.0008359970
  O         6.0014241441        2.3673704274       23.8628345571
  H         5.7664731308        2.2295108642       24.8093631728
  H         6.9387701355        2.6233884423       24.0119868665
  O         4.9168067475       -3.3771016425       24.3789090904
  H         4.5788246975       -3.3034054042       23.4916670927
  H         5.4071805681       -4.2329740979       24.2744974760
  O        12.0374152608       -6.9038955421       10.5158245114
  H        11.0331129767       -7.0773749873       10.6349874585
  H        12.3673887375       -7.3132548399       11.3529243587
  O         1.0859590926       -4.5747548744       11.1306402642
  H         0.9370887618       -4.6741376377       12.1653821838
  H         0.3867195650       -5.1377441708       10.7282762543
  O         1.7833351684       -5.9210412664       16.8277334462
  H         2.0566844117       -6.3847532170       17.7051951456
  H         1.0553802385       -5.3528865237       17.0447676530
  N         8.5415532694       -3.8804105510       21.8265564236
  H         9.4788680440       -3.7852430305       22.1910760252
  H         8.0151566364       -3.0933917679       22.2598427495
  H         8.0640145445       -4.7703936053       22.0621872441
