     193
 CELL 12.4294 12.4294 12.4294 90.0 90.0 90.0 i =    84520, time =    42260.000, E =     -1096.5431593707
  O         5.9218950234       -1.9391882867       41.7268390501
  H         5.3529900692       -1.8939620159       40.9353241234
  H         5.4818621660       -1.3051873879       42.2989316799
  O         7.0194460188       -7.5271214054       38.7058598890
  H         7.6598467806       -8.2931633592       38.9169412094
  H         7.4619210322       -6.8395983654       39.3261329109
  O        11.5184392215       -3.6449554439       40.8446882453
  H        12.4055031389       -3.7955987563       40.3973280057
  H        11.1555065418       -4.5735307464       41.1592459231
  O         8.0283521011        0.2029019628       41.4006296514
  H         7.3731188274       -0.5297249393       41.4602576702
  H         7.4932640164        1.0431115498       41.5023725106
  O        -3.1371873119       -5.5566711627       37.1146632134
  H        -3.1436199551       -4.8818377866       37.8983642369
  H        -2.6323912186       -5.1823721487       36.3639009540
  O        14.9650572247       -3.0615703592       47.6778610010
  H        15.9136051648       -2.8589117788       47.5578283477
  H        14.9782807785       -3.9484512557       48.0475308849
  O         7.6942544836       -0.3618412670       32.4847054147
  H         7.9899899749       -0.9187236992       33.2532601196
  H         7.8067884370       -1.0351245717       31.7702365712
  O        14.7217780998        4.4086278109       42.8710599616
  H        14.2954571953        5.2949927130       43.1905972522
  H        14.7505163935        4.4865876275       41.9289292939
  O         6.2124372872       -8.1934286829       30.9261801041
  H         5.6665851967       -7.3809970653       30.6060187641
  H         5.5958973309       -8.6924875573       31.5331405969
  O        10.6415102069       -2.8240091377       32.8380237885
  H        10.4472561265       -2.1860287892       32.0849828258
  H        10.0588701219       -3.6110305290       32.7570032546
  O        10.1879275585       -5.0715587605       34.5467831270
  H        10.9325362767       -5.5376719975       34.0868486377
  H         9.4559595673       -5.5934515096       34.2650413272
  O         1.8331222583        6.5855845262       35.6939642303
  H         2.5361810535        6.0216824556       35.3033579518
  H         1.2792306890        6.7721509568       34.8862621045
  O        -0.6421303882        0.4188200179       45.2934040603
  H        -0.2496288406       -0.1699737920       44.6247349315
  H        -0.4985383130       -0.0395637426       46.1450715956
  O         7.5799213575       -2.7632448308       36.7437471149
  H         8.1218773854       -2.6181259995       35.9712973412
  H         6.8667446569       -2.1075995272       36.7415806084
  O         6.8677997426        1.7729380459       36.8014665055
  H         6.1866199314        2.4353109523       36.5394913597
  H         7.6544237205        1.9635342217       36.2682415292
  O        16.8917868201       -1.0627821711       39.3013072094
  H        16.6693223224       -0.1489479919       39.6655543927
  H        16.0631848042       -1.3250546151       38.7823397165
  O        15.8809746058       -5.1746843161       32.7110403806
  H        14.9375747188       -4.9070689741       32.8330901820
  H        16.1531374599       -5.6347863308       33.5332396704
  O         9.9550176051        3.5633233644       41.9140553758
  H         9.6774924723        3.1985909568       41.0181827995
  H         9.4820026251        3.0882209832       42.5540236318
  O         5.5884104849       -0.7977109874       36.7863559580
  H         5.9819825659        0.1063100369       36.6855409633
  H         5.2374574566       -0.7772793292       37.6955159551
  O        10.6566741766       -6.2552769537       42.0477224113
  H        10.1397656156       -6.0227406083       42.9018269132
  H        10.6035069704       -7.2048937392       41.9182819201
  O        13.9942070843        4.0914013001       27.6736424291
  H        13.5100308950        3.3336584309       27.3566605394
  H        13.8260484820        4.7414526765       27.0071661831
  O         4.7913044447        4.5451922066       40.2045951812
  H         5.5181416330        4.6058919797       39.4975426064
  H         3.9794762236        4.2040420195       39.8445938017
  O        13.8493479355       -0.0634731552       41.8175776807
  H        13.4409132674        0.5309323708       42.4511687789
  H        14.2175219602       -0.7553810766       42.4545371939
  O         5.6624847410      -10.3577937255       29.4329952412
  H         5.9801739325       -9.4341764171       29.4949797430
  H         5.4287852906      -10.6560802442       30.3647420302
  O         3.0660912849        2.6378151486       37.7107126928
  H         3.7830812377        3.0198125006       37.0899658222
  H         3.4918932997        2.3880663700       38.5640096538
  O        13.8668304228       -3.9134996223       27.4044546560
  H        14.5294601106       -4.0693962698       28.1607825807
  H        14.1872865744       -3.2418665510       26.7768369019
  O        12.7971791188       -8.9077356674       46.1300045595
  H        12.7233891836       -9.7379705503       45.5212572658
  H        12.1039138600       -9.1403010971       46.7835032751
  O        13.4430875965       -3.2358461410       32.8769407555
  H        12.4995848588       -2.9836019678       32.8033748951
  H        13.8281435947       -2.8913694058       33.7305970914
  O         6.3562171540       -5.1003861583       36.7721748289
  H         7.1595010370       -5.5795084820       37.0285035807
  H         6.6571367460       -4.1172051843       36.7850633198
  O         3.5099623606      -10.9977134612       40.2955212017
  H         2.8089882296      -11.3799536923       40.8534747941
  H         4.2888540735      -10.7234532049       40.9026563131
  O         1.9034114221       -1.8541163696       38.0557957589
  H         1.2710062523       -1.1984679987       38.4283456157
  H         1.9436723258       -1.7960837748       37.0766371740
  O         2.6847668785       -1.8317168781       43.4931934288
  H         3.5310406874       -1.6223148151       44.0284974800
  H         2.0102122325       -2.1891048032       44.1016589154
  O        12.4713505071       -6.1768586113       33.6908379181
  H        12.6891881505       -5.9287654620       32.7423360842
  H        12.6097018991       -7.1732863842       33.6498237568
  O         4.9483283040        0.0855433691       31.3693553826
  H         5.5271045760        0.0656265265       32.1854450377
  H         4.2364786800        0.7373282890       31.4409120439
  O        17.0904250840       -1.6046848896       34.3999063264
  H        17.5911287270       -1.9799724878       33.5877089109
  H        17.6512215438       -1.2699802874       35.1553853149
  O        16.4191181833        2.8410926098       31.7922668527
  H        15.6665429615        3.3974380744       31.3813852905
  H        16.0803815114        2.8937236890       32.7832283587
  O        11.0639080946       -7.4035830888       37.7053509660
  H        11.8960222790       -6.9962865212       37.9874891696
  H        10.4964784681       -6.6176402324       37.4066649785
  O        12.1936063792       -0.1874638861       35.7547780927
  H        12.9539689555        0.2296574594       36.2495928440
  H        11.9171716404       -1.0862113736       36.1675871417
  O        13.3822164356       -5.6691224227       43.4174309304
  H        14.0704759039       -5.1633906307       42.8767135532
  H        12.6214161394       -5.6536240604       42.8268653190
  O        17.4256991408       -6.3432364134       34.8109192079
  H        17.8957220973       -5.6976368428       35.4080233027
  H        18.1445538633       -6.5769318394       34.1109696526
  O        -2.9785552620       -0.5713242749       26.4113926095
  H        -3.6365077296       -0.3224848884       27.1710285497
  H        -2.0307305335       -0.6285490456       26.7940552396
  O        12.8448505734        2.3223009399       43.0642712856
  H        13.3428572538        3.1089462120       42.7228958691
  H        12.0130099538        2.2342051154       42.5845448429
  O         9.9181366640        0.7538238574       48.8141904914
  H        10.8073035850        0.2537766238       48.5878548456
  H         9.7633583705        0.4947314387       49.7187687953
  O         8.4736762787        3.3592464513       34.5914883802
  H         8.6187914227        2.7909064232       33.8229895278
  H         9.3866557425        3.4259121622       35.0176509678
  O        15.4229192916        3.1727981530       34.5039627001
  H        15.4592652791        2.3148941657       34.9930455931
  H        14.5330769424        3.4510590277       34.3008098452
  O        21.4094486699       -1.6482346696       34.6837487261
  H        21.8817316196       -0.8745595913       35.0091769282
  H        22.0106625480       -2.1749061048       34.1554804560
  O        12.8439690421        1.9457432723       37.9042889659
  H        12.4369074174        2.6649245280       37.3569496747
  H        13.8096735168        2.0587708230       37.6284942255
  O        15.3425353912       -4.1511659616       42.0503011729
  H        16.0831713433       -4.8290143969       42.1748617267
  H        15.4108944682       -3.2524267780       42.5262854296
  O         5.0665493441        4.0573042762       36.4362439330
  H         5.8251706121        4.5020937944       36.8755920974
  H         4.8506548463        4.6568665234       35.6716137473
  O        -0.0268889964       -0.5007018946       39.2600024478
  H        -0.0148541522        0.4105040030       38.7620806259
  H         0.3450582104       -0.3221586190       40.1724482163
  O        17.8113463897       -3.1679182666       32.2624786331
  H        17.0675130593       -3.7736622852       32.3957148380
  H        18.1743255682       -3.6006725037       31.4588694380
  O         9.2579585028       -3.6437643880       39.0390062782
  H         8.8795213655       -2.8707034609       38.6088732065
  H        10.1089467527       -3.5076869913       39.5538224230
  O         2.7808924971        0.2851514571       35.8534368520
  H         3.4801330125        0.5154266658       36.5381578190
  H         3.2198185630       -0.4230096492       35.3176162148
  O         9.2899717855        1.9313894820       44.2126910910
  H        10.1584840319        1.3976916016       44.2708802295
  H         8.6057498127        1.2241999900       44.3307792750
  O        10.8376024890        3.1707760505       35.7314914926
  H        10.5261088703        2.3040986297       36.1771700764
  H        10.9046524519        3.9001171179       36.4065018500
  O         9.1221782196       -5.1753441264       44.1800150893
  H         8.4581849478       -4.6200258218       43.6926497425
  H         8.5605059053       -5.7698487304       44.7284067254
  O         4.8808432552       -5.9335252024       42.0763974915
  H         5.7575225385       -5.4651323328       41.9491425418
  H         4.8202396634       -6.5791719767       41.3037427450
  O         1.2812492698       -6.1984590329       38.2545108358
  H         1.3556249171       -5.3442686384       38.7280283523
  H         1.3868294308       -5.9473094786       37.3088369459
  O         9.0352206771        3.0227401820       39.3439751420
  H         9.0365557365        2.0981043561       39.0091494328
  H         9.6934645440        3.5957923761       38.8590071722
  O        10.2859896227       -1.1704043940       42.8425528805
  H        10.6132994401       -1.8091702376       42.2334939895
  H         9.5580090339       -0.6959122192       42.3677185499
  O        20.7546570727       -5.5727798034       28.2201220891
  H        20.8288902747       -4.7513110666       27.6532736995
  H        21.6771243440       -5.8422430516       28.4417691980
  O         7.1219809074       -4.3201605563       30.0329061281
  H         7.5047728687       -4.8966102461       29.2857800390
  H         7.0128891517       -3.4285719439       29.6474085975
  O         7.3940962264       -6.9533679055       33.1547785581
  H         7.8491873245       -7.6850320202       33.6867553748
  H         6.8832316170       -7.2392516651       32.3621771205
  N        11.6145844804       -2.7949030621       36.2543035529
  H        12.4263278307       -3.1635222828       36.6645423089
  H        10.7566886668       -3.0765320868       36.7189205867
  H        11.5376495826       -3.2399329786       35.2781389360
