     193
 CELL 12.4294 12.4294 12.4294 90.0 90.0 90.0 i =    31720, time =    15860.000, E =     -1096.5334131761
  O        -3.4823632518        0.3493097324       13.6851566773
  H        -3.2407443139       -0.1756227178       12.8663289188
  H        -4.2886307218        0.8211358339       13.4691872660
  O        -0.3435195009       -8.3508464903        9.2392405099
  H         0.2859402538       -9.1090121827        9.2479656154
  H        -0.5847744381       -8.1771805323       10.1666932304
  O        -0.2063980069       -7.1480861317       11.8018986970
  H         0.0905071356       -7.6538427493       12.5836338461
  H        -1.2209593453       -6.9882510247       11.9705974684
  O        -1.7715439393       -0.2393614958       11.4316557315
  H        -0.9284111084        0.1237268577       11.7836290008
  H        -1.5375732926       -0.0643990079       10.5241765274
  O       -11.3559408901       -3.9211070522        7.8232152642
  H       -12.2260315595       -3.5472739309        8.1335166534
  H       -11.2492812818       -3.5149856358        6.9429064835
  O         3.3891186719       -5.5520080187       15.2380098839
  H         3.5125729196       -5.0641443860       14.3583809481
  H         2.9529854710       -6.4235190035       15.0582622778
  O        -3.6767070848       -0.9107970577        3.5394470083
  H        -3.8203533164       -0.2216702184        4.1970779486
  H        -3.7383857143       -0.4518302074        2.6597965397
  O         3.6782280079        4.1734919955       12.8291154901
  H         2.8849350092        4.6386466517       13.1879635553
  H         3.5781152403        4.2263313982       11.8111344023
  O        -4.8711075636       -7.6180988380        0.6815024613
  H        -4.8761689194       -7.6429611529        1.6958443001
  H        -5.6195731018       -7.0090082607        0.4296914735
  O        -1.0101538057       -1.7408238760        3.5530435521
  H        -1.8903506005       -1.4069709757        3.3582266212
  H        -0.9716369904       -2.3827441615        2.8570903815
  O        -0.2268169579       -5.5273605149        3.1212019538
  H         0.4953040015       -5.0186140170        3.7065815896
  H        -0.7698986393       -5.8431945006        3.9563295327
  O       -10.9062954012        4.5355439371        4.9263955938
  H       -10.0945512061        3.9568161673        5.0257873890
  H       -10.9881633932        4.9284951781        5.7762412623
  O       -10.6391639652       -2.4862279856       12.4878989684
  H       -10.5111109656       -1.6509299257       13.0178466436
  H       -10.4919228527       -2.3998688647       11.4962691149
  O        -2.5136336490       -3.2385702183        5.6682201618
  H        -2.2492896015       -2.5794873186        4.9762783435
  H        -3.5508198247       -3.2381067220        5.6491838045
  O        -1.8747498057        0.8988467293        6.2597640282
  H        -2.2370280638        1.8082945004        6.5190087753
  H        -1.1454721997        0.9784801008        5.5647200055
  O         7.3374922074        0.1753952206        9.2784391483
  H         7.5337619712       -0.1018520965        8.3343810961
  H         7.8411403792       -0.5833235515        9.7126922279
  O         4.0397479463       -4.0696976911        0.5821326840
  H         4.4409548543       -4.5989975287       -0.1862336313
  H         3.1265880176       -3.6290339369        0.2919667138
  O         0.3754688012        1.1532709523       12.2716821913
  H         0.9275983844        0.7729132668       12.9340857099
  H        -0.2736606042        1.6349862221       12.7729301790
  O        -0.9327827077        0.1415869456        8.6094123876
  H        -1.2371404352        0.5361354174        7.6850125700
  H        -0.0841324244        0.5780294386        8.7981199621
  O        -2.7251208540       -6.3387018747       11.9966742116
  H        -2.9237336107       -5.3862104111       12.2648562612
  H        -3.3222235592       -6.8854927321       12.6025925139
  O         3.7757023302        3.8748639310       -2.3141561218
  H         4.6443673258        3.5426797329       -2.5762187771
  H         3.5887463790        4.7418304156       -2.8421345134
  O        -3.1709284079        2.5421417896       10.5905044781
  H        -2.4547216411        1.9256704587       10.5466337867
  H        -2.9643806607        3.0005731237       11.4265211541
  O         4.8395103165       -0.1162290197       12.3098588180
  H         5.1764258512        0.7912476533       12.4703699446
  H         5.3056087594       -0.8936102789       12.8104159566
  O        -5.2727538770       -7.3332101227        3.4597053578
  H        -5.5780885460       -6.3520519663        3.5409027116
  H        -4.9969270795       -7.5762580121        4.2975215890
  O        -5.6236105227        2.3064922661        6.3904817745
  H        -6.4547839675        2.3925716428        5.8965122985
  H        -5.7101269528        2.7802833493        7.2455087622
  O         5.4747006453       -6.3494227093       -0.5058051090
  H         4.9590028214       -7.0819577881       -0.1426583930
  H         5.8006171231       -6.7114748383       -1.3773621308
  O         2.5075966704      -12.6752286228       13.6913375906
  H         2.7341568161      -12.7868290750       14.6529706432
  H         3.4130286117      -12.6316457825       13.2235018708
  O         1.2712981099       -3.6312865757        4.6623715559
  H         0.5582456720       -2.9858932584        4.4407072112
  H         2.0965022740       -3.1978505827        4.3991782202
  O        -5.7663550207       -5.9052450125        6.3986020649
  H        -5.5659863328       -5.2421811360        7.1619104815
  H        -4.8875825292       -6.4439017674        6.4109437315
  O        -5.6552678786      -10.6295820772       12.9414094535
  H        -6.1421562874      -10.6017045761       13.8146841909
  H        -5.4475223636       -9.6920566565       12.7311326619
  O        -5.2124521407       -4.1994566992        8.5754455483
  H        -4.4817593495       -3.6173565809        8.9453191325
  H        -5.9983187212       -4.2061016505        9.1534856851
  O        -6.9605268396       -1.9824438072       14.1284914654
  H        -7.3466866009       -2.8235918191       13.6955928816
  H        -6.0317753882       -2.2138090766       14.3988244330
  O        -1.0490712979       -8.9598979567        3.5796050211
  H        -0.4524090609       -8.2414417854        3.8429363646
  H        -0.4771867989       -9.7692013508        3.7170422250
  O        -4.1566139840       -0.1056489380        6.4905541567
  H        -4.7431172543        0.6843547832        6.1804241008
  H        -3.2673787812        0.2479658551        6.3886508274
  O         6.0414523688       -4.9989335633        3.8816547612
  H         5.0892624053       -5.2229774536        3.7387821635
  H         6.3074581084       -4.9629593517        4.8577861941
  O         5.3341155103        3.0460200765        2.4405297904
  H         4.7174020206        3.4503646136        1.8964003923
  H         5.7908352781        3.7218636983        2.9345398910
  O         1.0239722031       -5.1572389872       10.4338121440
  H         0.5087089946       -5.9773226986       10.5517114052
  H         0.7585768265       -4.6374377276       11.2293630134
  O         3.4697792116       -1.6208484495        3.9740023749
  H         4.2230923473       -1.5960195967        3.3219310630
  H         3.8143672839       -1.9321894757        4.8533634160
  O        -0.7860758615       -3.5579190523       13.6542909729
  H         0.1376384376       -3.4815742129       13.2576585894
  H        -0.7768290699       -4.2883403712       14.2899311679
  O         3.8151464846       -6.1530313035        6.4050744841
  H         4.6932846433       -6.3173505187        6.0768740301
  H         3.2178346672       -6.3228867342        5.6383393488
  O        -7.3378161881       -4.1255266657       -2.2054511622
  H        -7.7636751132       -3.2714712410       -2.3208954329
  H        -7.9873025339       -4.7496349187       -2.5232359474
  O         1.4958510549        5.0028904075       14.5239722012
  H         0.8475605570        5.6403279780       14.7615684329
  H         1.5608219237        4.3225152515       15.2300538919
  O         0.0205717775        0.9637968950       16.8093688608
  H        -0.4298119565        0.2156318258       16.2983139187
  H         1.0181355217        0.7440046383       17.1377426282
  O        -3.7302534820        5.0084023393        5.8364500313
  H        -2.9936990242        5.6585048004        5.6148231462
  H        -3.3164370775        4.2628469863        6.4556847274
  O         4.0151854546        2.8689615417        5.1664792205
  H         3.5653969139        1.9981502502        5.3289111696
  H         4.5101702643        2.8383481325        4.3357893511
  O         8.7532466849        2.2996144515        3.8603494175
  H         8.2715130552        2.6213585034        4.6740254108
  H         9.6006311969        2.7604178294        3.7628074136
  O         2.5949551389        0.5888627732        5.1453092608
  H         3.0679649881       -0.1814974192        4.6556668091
  H         2.5971076900        0.2725121966        6.1249680612
  O         4.5701742613       -0.5967875352        9.5768748064
  H         4.7192540410       -0.4186075859       10.5400802405
  H         5.4701662686       -0.5506996954        9.2065567199
  O        -2.6414347261        3.1666033150        7.7463548026
  H        -1.7674004695        3.4787554531        8.0767317465
  H        -3.1049894775        3.0435975322        8.6241850145
  O        -9.9217170316        0.1906083534        7.7742232365
  H        -9.2780839965       -0.0847993359        8.4535640544
  H       -10.4140380831        0.8806405790        8.2659323843
  O         7.7189260671       -3.1768401230        2.8301409379
  H         7.1476834632       -3.8748485464        3.2433194580
  H         7.8595048905       -2.4505806696        3.4799784138
  O        -1.3985679788       -2.4264054383        8.3211234023
  H        -1.0939517803       -1.5005376343        8.2975902052
  H        -1.7449159303       -2.5141605236        7.4322723899
  O        -5.3023092716       -2.5352113124        6.0434275789
  H        -4.7986054839       -1.6915077471        6.1365587408
  H        -5.1458951247       -3.0336170612        6.8512767106
  O        -1.6847724739        2.4825297889       13.4290542266
  H        -1.5903629722        3.2099451980       14.0901943452
  H        -2.2649279912        1.7127641646       13.7241096767
  O         0.3566790640        5.9273668823        6.9761047708
  H         0.6802216243        6.7813657884        7.3361165380
  H         0.3116965009        5.2490200034        7.7550103640
  O        -3.4519412174       -3.3760574814       12.6357790588
  H        -2.4587339367       -3.2333335801       12.8526699482
  H        -3.8850103998       -3.3130889235       13.5475814716
  O        -3.8119729331       -2.2031193296       10.1322491217
  H        -2.9175204066       -2.1909811271        9.7019327375
  H        -3.7196192655       -2.4902675350       11.1121323924
  O        -9.0755760705       -6.0883608205        9.1746387447
  H        -9.9440393730       -5.7322525463        9.5395057574
  H        -8.9971411290       -6.1551038732        8.1910696986
  O         1.4041340340        2.1345044166        9.8437149001
  H         0.9961718937        1.6726646001       10.6076766879
  H         2.1739498170        2.6735327027       10.1535638359
  O         2.4840571186       -2.7018198010        9.8675606241
  H         3.0363606035       -2.0809068821        9.3688136181
  H         2.1258349646       -3.3515908464        9.2588239840
  O         6.4206960736       -9.4485100893       -3.2358249947
  H         6.9224376872       -8.6156323929       -3.0605601225
  H         6.8741361015      -10.2915510193       -2.9208338316
  O        -5.1354784866       -6.9708749270       -2.7233096330
  H        -5.1078792457       -6.1868321029       -3.3113775510
  H        -4.4251504765       -6.8643615433       -2.0865525675
  O        -1.6870700082       -5.7085002726        5.3628940647
  H        -1.0006670813       -5.9455281448        6.0142382247
  H        -2.1384059728       -4.8685032248        5.6579332118
  N         4.0854809722       -2.7146431975        6.2615094244
  H         3.6411401390       -2.1833425156        7.0490735052
  H         3.7506473095       -3.6568978114        6.3098569611
  H         5.1104751026       -2.7236750330        6.4987448139
