     193
 CELL 12.4294 12.4294 12.4294 90.0 90.0 90.0 i =    59720, time =    29860.000, E =     -1096.4952179278
  O         1.3321647849       -1.4910199974       29.0735239939
  H         2.2917883349       -1.4765824915       29.0428144514
  H         1.0319774418       -0.5681635486       28.9789136060
  O         3.6504190567       -9.4375746039       24.2763970099
  H         4.5867600979       -9.7013752475       24.0831097932
  H         3.7177290297       -8.6478522878       24.8070345873
  O         6.5917273929       -6.1056761757       26.1624488769
  H         6.9938432887       -6.3701673075       27.0346722804
  H         5.6835226989       -6.5497006151       26.0965485022
  O         4.0389698351       -0.2663789133       29.2758991284
  H         3.9500202573        0.0939839451       30.2048134418
  H         3.4914829097        0.3552517075       28.7182306847
  O        -7.3014215408       -6.2343222353       22.6167411986
  H        -7.8481274840       -5.6801485309       23.2336647573
  H        -7.1802669818       -5.6701181791       21.7950676511
  O         8.9461440701       -6.8597557629       31.3848494805
  H         8.0086890363       -6.6224503475       31.1625574305
  H         8.9646939493       -7.0243164193       32.3647690991
  O         1.3801365975       -2.1911727187       19.3997269180
  H         0.7184207423       -1.8927149244       20.0780650822
  H         1.2285106340       -1.6946301376       18.5223295900
  O        10.3401158076        4.2520415837       29.3897034661
  H         9.8964605769        4.8006544873       30.0546146007
  H         9.6715563865        4.2206654972       28.6416003769
  O        -0.1160016403       -6.1941498098       16.7798812605
  H        -0.3005917916       -5.4708896707       17.4580987905
  H        -0.8777839297       -6.8436371250       16.7377731970
  O         4.1710733354       -2.8125411576       19.0540420477
  H         3.3457895304       -2.3085226254       19.2292069695
  H         3.8847324728       -3.4668157850       18.3976019165
  O         6.0596722413       -6.5189379482       18.1183113489
  H         5.9338393667       -5.7381355825       18.8101627474
  H         5.5143883120       -7.2859658687       18.4594964506
  O        -3.1160507783        5.0743158887       21.5632969734
  H        -2.3617855149        4.4826367718       21.8671481360
  H        -3.7915258691        5.0359136065       22.2770303299
  O        -5.7379504853       -1.3170937017       28.6223385835
  H        -6.5597670274       -1.0207719757       29.0562449984
  H        -6.0721246282       -2.0839107690       28.0147244886
  O         2.8411474219       -4.3758004463       21.8435437709
  H         2.3472945671       -5.2106340361       22.0851610852
  H         2.8843323963       -4.3528458332       20.8217841220
  O         2.3638006783       -0.1168596455       21.3167350507
  H         2.1177192394        0.6789621011       21.7696127731
  H         2.9176083734        0.1335837197       20.5546454972
  O        15.0196526541        1.3441455904       26.8823039827
  H        15.3866796444        1.8585316159       26.1256909877
  H        14.5838778279        0.6632997114       26.3126474802
  O         8.1715608629       -3.7351438335       17.4059448671
  H         8.6849882211       -3.9846893871       16.5989539085
  H         7.8549216992       -2.8478396321       17.2259067961
  O         6.9280406650        2.4917645483       27.3401244429
  H         7.4482891574        1.6347170806       27.0602715409
  H         6.1727408148        2.1868842060       27.9415124714
  O         2.6293389931       -2.0193854092       23.4580836790
  H         2.7515956501       -1.2751163357       22.7224222674
  H         2.2859378408       -2.8316447772       23.0104249822
  O         3.9463413183       -7.2405272940       25.9305728403
  H         3.6351365957       -6.3780853317       25.6401861926
  H         3.6001192653       -7.2122307498       26.8680228509
  O        10.6349197605        3.2473858331       14.3288637638
  H        10.3456886031        2.3370783476       14.1394590384
  H        10.4017995463        3.7295859067       13.5230674369
  O         1.0576972792        3.8352027079       27.1000807618
  H         0.1691955420        3.7107596287       27.4607981211
  H         1.4537069298        4.1867967941       27.9412766810
  O        10.5641485564       -0.5286302764       31.4166525182
  H        11.4198966712       -0.1326461718       31.0798594920
  H        10.8363340748       -1.4704540596       31.6485093758
  O         2.1737245328       -8.5863203742       17.3697862832
  H         2.8883811586       -7.9412282436       17.5941239029
  H         1.4419160956       -8.4437467914       18.0447101288
  O         1.0487499534       -0.0758112668       25.0851017018
  H         1.2553534563        0.3257570712       24.2040054516
  H         1.0180332979       -1.0738964599       24.9648449699
  O        10.0622042140       -4.6660987272       14.9487900749
  H        10.8444338808       -5.1357154626       15.2829446479
  H        10.2717922207       -4.0586913116       14.1502033220
  O         8.3374411472      -12.1637880936       30.5962358551
  H         7.8573662901      -12.5065484247       29.8518274416
  H         9.1998288758      -12.6325388130       30.6102616415
  O         5.8053262038       -4.7758180348       20.2964711156
  H         5.0476004590       -4.2098534006       19.9538885463
  H         6.4394531072       -4.0641645119       20.6479313625
  O         1.2637502786       -6.9365091665       22.0160636734
  H         0.8223345964       -6.9757134785       22.9191446215
  H         0.6453175387       -6.5479314870       21.3870250993
  O         0.4190125304      -11.2524359510       28.9615917791
  H        -0.0442504934      -10.7199782722       29.7025629752
  H         1.0633149988      -10.5757698451       28.6554938353
  O        -2.1635675843       -2.4770111255       25.3634586040
  H        -2.3914545034       -1.7944501442       24.7669006606
  H        -1.3021095762       -2.2084826694       25.7862752472
  O        -2.3457694479       -3.1046568828       32.0514250417
  H        -2.8979235160       -3.4802432639       31.3460451245
  H        -1.8325882237       -3.8899569353       32.3687547023
  O         7.8823784665       -9.7008932687       19.0352666886
  H         8.3969625319       -8.9791943439       18.5820702681
  H         8.0918612752      -10.5751522898       18.4849024665
  O        -0.0962920502       -1.4633775242       21.9591286988
  H        -1.0340076145       -1.2421414311       22.0377176387
  H         0.4596753298       -0.7123759467       21.7205236154
  O        11.3324257268       -5.3825589534       21.0886137827
  H        10.4684676062       -5.8182781510       21.3173713598
  H        11.7070067504       -5.0216287807       21.9823263944
  O        11.9704231278        2.5839582919       18.5047541467
  H        11.4068030635        3.2832514504       18.2885415227
  H        11.5219363674        2.1795631733       19.3295727300
  O         7.4033784866       -7.2670756151       23.7802365557
  H         7.2790226820       -6.8026549444       24.6143137844
  H         6.6256821132       -6.9965322882       23.2703468106
  O         7.3888469451       -2.6164707686       21.1408656753
  H         8.1805033056       -2.8394591934       20.6236515443
  H         7.6161918254       -2.9800472344       22.0660998826
  O         4.4935456139       -4.3545764613       29.0849292338
  H         4.9555430736       -3.8866795135       28.2930096931
  H         5.0769125937       -4.9991866731       29.4188535165
  O        11.4507321999       -8.9619107480       22.3827794378
  H        12.1064537988       -8.6617422939       21.7573062884
  H        10.9430533037       -9.6496885334       21.8019002720
  O        -4.2837018018        0.1000845350       14.3646779481
  H        -4.9459694232       -0.4440713438       14.8800541951
  H        -3.3225014472       -0.0167922084       14.6208257751
  O         7.6783858751        5.1026785019       28.3529142429
  H         7.0861213784        5.3959787400       29.1607080856
  H         7.4151858031        4.1937248497       28.0767800686
  O         6.7656933601        0.0872088059       32.9012954365
  H         6.7735257344       -0.8888656504       32.8612459666
  H         7.4207583087        0.3973044810       32.2170860127
  O         5.0128913643        3.1607004220       19.1435607386
  H         5.9448259115        2.9560985369       19.2991202999
  H         4.6926669674        3.4444263055       20.0434168333
  O        10.1656849177        2.0080349980       20.6001701083
  H         9.9634627416        1.1069018602       20.9503716087
  H         9.2803220389        2.1754790517       20.1807873215
  O        16.6761473719        0.5926287323       19.3974623443
  H        16.9402625493        1.6374378415       19.3366764496
  H        17.6029548000        0.3990243359       19.7356377767
  O         9.5985921339       -0.3284203160       21.9423594709
  H         9.0065876405       -0.8964488928       21.3682012205
  H         9.0275407971       -0.0352137613       22.7247317461
  O        10.9816069277        0.1482725288       27.0458425041
  H        11.6022700072        0.6539512278       27.6720285843
  H        11.5236683427        0.0708152712       26.2341062603
  O         1.3841832697        1.9406436803       22.9701606870
  H         2.0882744970        2.4147677192       23.4818886007
  H         0.5964446655        2.5010799613       23.1474076687
  O        -4.5888884495        0.3725175556       24.1034867693
  H        -4.5363921044        0.1948216726       25.1263852696
  H        -5.1493650845        1.2406963269       24.0559716647
  O        13.0724025031       -4.8786309778       19.0207352623
  H        12.4096108971       -5.2340183234       19.7133602857
  H        13.2533821339       -3.9085247342       19.2445701002
  O         4.2097219017       -4.0657170826       24.3725595538
  H         3.9866350865       -3.1423520312       23.9661048500
  H         3.2649575191       -4.2757505544       24.6248720656
  O         0.0498374147       -3.9935209448       23.2575841483
  H         0.1605412891       -3.1309687636       22.7527562651
  H        -0.3542356079       -3.7625181882       24.1072860579
  O         4.8086909452        2.6649585485       28.8610802704
  H         4.7470037066        2.6259298538       29.8365513475
  H         3.8872036767        2.4978629314       28.5745611383
  O         3.9046288449        4.2090347801       21.3250301458
  H         4.2224384523        4.9753114145       21.9036969975
  H         3.0844216290        3.8152920512       21.7329588270
  O         2.5242812229       -5.9678194015       28.2174296719
  H         3.0431522925       -5.3939461158       28.8092895482
  H         1.7093673666       -6.1841402893       28.7345154653
  O         0.4239721696       -2.7292332809       26.3352119903
  H         1.0123650006       -3.4566494603       26.0045151654
  H         0.6848820351       -2.4357962725       27.2800602843
  O        -2.2361871598       -6.4303409435       25.1608320247
  H        -2.7360251167       -5.9730519332       25.8560718900
  H        -2.8721092650       -6.5565901269       24.4324861431
  O         6.6719640638        2.6154605779       24.6870963752
  H         6.7297745824        2.5449028775       25.7329830018
  H         6.8490347711        3.5529104885       24.4533743935
  O         5.8199156035       -3.3231945986       26.7608715195
  H         5.1257173549       -3.2011663591       26.0386675509
  H         6.4436731176       -4.0826360611       26.5399019188
  O        13.0800190911       -7.2240365585       12.2510723278
  H        12.0754397109       -7.0762196326       12.4217135277
  H        13.3321261471       -7.7398779872       13.0480507243
  O         1.9902614461       -4.9532134331       13.1303519219
  H         2.0997883877       -5.2376087383       14.1198701130
  H         1.3803725091       -5.6583393853       12.6276014055
  O         3.0401547777       -6.4195462080       19.0804673536
  H         3.1588250396       -6.9349759243       19.8584997235
  H         2.1932595091       -5.9287249551       19.2651382847
  N         7.2680785375       -2.9679632062       23.7333973836
  H         6.4952469861       -3.6150498246       23.8697810954
  H         7.9698189064       -3.3665376811       24.3367990914
  H         6.9981485934       -2.0654516621       24.0761130590
