     193
 CELL 12.4294 12.4294 12.4294 90.0 90.0 90.0 i =    54520, time =    27260.000, E =     -1096.5331581622
  O         0.6590537915       -1.1408518452       25.6719607855
  H         1.5203905570       -0.7553567707       25.9712517122
  H         0.1123498210       -0.3634861672       25.5431425815
  O         3.3151063449       -9.1347056231       21.5978993437
  H         4.1877404957       -9.5470980010       21.6230259482
  H         3.4270535643       -8.2420763076       22.0548458127
  O         5.3089402481       -5.9629690734       24.3045038055
  H         5.7737608945       -5.9000970924       25.1467600526
  H         4.4446137320       -6.4695403242       24.5166257947
  O         3.3412434728       -0.5148444127       25.5240540355
  H         3.7937684182        0.0000832972       26.2643039384
  H         3.0798206973        0.2519251549       24.8958806983
  O        -7.5913162286       -4.8091145232       20.0072525278
  H        -8.2988422544       -4.3775142149       20.4821382492
  H        -7.2100035445       -4.1727568989       19.3692820480
  O         7.2770734014       -6.4459827072       30.3946704776
  H         6.4273801514       -6.0865304851       30.0408345534
  H         6.9547457886       -6.8498371339       31.2555316121
  O         0.1732226739       -2.6614176934       15.6490843080
  H        -0.1906861818       -1.9309333418       16.2743456810
  H         0.1662030027       -2.2448966258       14.7798154135
  O         8.2820581737        4.2220042596       26.0384020296
  H         7.5640520629        4.9115111036       26.0130441894
  H         8.1632874393        3.6989455779       25.1821015288
  O        -1.9312747138       -6.5623977251       13.7157286019
  H        -1.9695584285       -5.9615465870       14.5256347213
  H        -2.6468337974       -7.1758759928       13.7282146355
  O         3.2133537709       -2.6252133735       16.1511597152
  H         2.2908048210       -2.3226086879       15.9948485111
  H         3.2835988683       -3.1900308442       15.2930151527
  O         5.0871021600       -5.4214778044       16.4318823481
  H         4.9653361482       -4.5694390112       16.8856798052
  H         4.1670978962       -5.7991865302       16.4029653025
  O        -4.9119262722        4.9265923082       20.5864568893
  H        -4.3525521681        4.0833219873       20.6140589421
  H        -5.6903549606        4.8988145568       21.1693425591
  O        -5.8556662251       -1.7009436449       24.8415239122
  H        -6.2509493263       -0.9114577477       25.2644735224
  H        -6.6369528371       -2.1966320523       24.2772109352
  O         1.7557644304       -3.7084332833       19.4294085052
  H         2.3385580623       -3.0335632870       18.9625628106
  H         0.7939953988       -3.5534407246       19.2655966310
  O         1.5503118237        0.6155323637       17.9275394355
  H         1.2160599986        1.3308944423       18.6033506861
  H         1.9081846257        1.2381720296       17.1926373803
  O        14.9088001538        1.3330303379       23.4621066653
  H        15.3064736854        2.0813839388       22.9000530318
  H        14.1411685638        1.0719964424       22.8884430395
  O         8.0728678096       -3.3932588213       13.4247783707
  H         8.5785579555       -3.8106626598       12.6783757709
  H         7.5272059471       -2.6362794154       12.9850675470
  O         4.8885715889        2.4470977586       25.2250457412
  H         5.6871749037        2.0854947406       25.7910575550
  H         4.7579763145        3.3336823693       25.6225844826
  O         3.0650214253       -1.3454287371       18.8331682547
  H         2.4432927733       -0.6824571635       18.4011170176
  H         3.4990906037       -0.9047761024       19.5939933094
  O         2.8089074158       -7.5158592956       23.8475833052
  H         2.1346652745       -6.7764211538       23.7272801499
  H         2.2322241048       -8.2632940859       24.3025634403
  O         7.9805752353        3.1739384040       11.0284141872
  H         8.6885551652        2.4997715869       10.7394886151
  H         8.4055445324        4.0023346994       10.7073430777
  O         1.4692997842        2.8938753121       25.4098973448
  H         2.0004842368        2.3762392424       24.6692911571
  H         1.8387499116        2.4528673635       26.2366247310
  O         9.4941197551       -0.1896183536       27.7079227362
  H        10.4389271928        0.0815827777       27.5629103517
  H         9.4592127637       -1.1888989212       27.8815420368
  O         1.0352656473       -6.7176475342       14.3452506166
  H         1.0911906835       -6.2217014591       15.2146273350
  H         0.1248703466       -7.0863334690       14.2131156746
  O         0.0839195822        0.5952931757       21.9770959346
  H         0.3072672574        0.7104551467       21.0201069918
  H         0.4035693278       -0.2764866594       22.1584435212
  O         9.7496566917       -4.7858601794       11.6300565709
  H        10.2672585046       -5.2635471037       12.3660608765
  H        10.2295475598       -4.0744952826       11.0764181843
  O         6.5818236232      -11.4720884694       26.8580139354
  H         5.9284883117      -11.9226118165       27.4694376855
  H         7.4460334095      -11.8849610744       26.9895793801
  O         5.5469270780       -3.1575717980       17.9582811478
  H         4.8691187288       -2.4572602178       18.0002011279
  H         6.4254116897       -2.6773262647       17.8826855441
  O        -0.7329653244       -7.8668385087       20.3228645580
  H        -0.7395887888       -7.8758294099       21.2412924373
  H        -1.2574012624       -7.1203341190       19.8748664035
  O        -0.8828493096      -10.9925186780       25.3482374666
  H        -1.5537601227      -10.7431773610       26.0214429611
  H        -0.1432118503      -10.3832628111       25.4473460664
  O        -1.7112934058       -2.8957805367       22.4300375444
  H        -2.4647935617       -2.2320356215       22.4332823095
  H        -0.9081008488       -2.4920874671       22.8207013652
  O        -3.3640831131       -2.7288253736       28.2032483449
  H        -3.6016464955       -3.1706520391       27.3236086077
  H        -2.5656569408       -3.2349702592       28.5092096060
  O         6.9892295675       -8.3367341005       16.3383178858
  H         7.3615505618       -7.6241540319       16.9666124787
  H         7.4425037882       -8.1683192127       15.4583847600
  O        -0.7552956413       -0.8207843786       17.7771836522
  H        -1.6111431440       -0.4474269974       17.5631488124
  H         0.0339950797       -0.2217397646       17.6998272252
  O        10.5138237569       -5.6238967515       18.8904706659
  H         9.5610988925       -5.8050319118       19.0397898200
  H        10.8718150461       -4.8244621289       19.3091551486
  O         9.8856642681        2.4342152765       14.8972409738
  H         9.1912266093        2.9030710063       14.4040004162
  H         9.4207677024        1.8966106327       15.5983649919
  O         5.2918877731       -7.1639265824       21.7765479293
  H         5.4096368968       -6.8130584634       22.7393676641
  H         5.1313882862       -6.3760884586       21.2175977057
  O         7.9013198918       -2.2337020704       18.1972257521
  H         8.2001719431       -2.5944560746       17.3339440002
  H         8.0524555052       -2.8157909786       18.9838836736
  O         3.0785217397       -4.1079892051       26.1989085060
  H         3.4367909255       -3.6933051629       25.3792561426
  H         3.3223811789       -5.0569969350       26.2904410037
  O         9.3351708342       -9.4055974533       20.1896512422
  H        10.2532129397       -9.2017760053       20.0294683852
  H         8.9614044366       -9.8234966238       19.3618554590
  O        -3.9722138661       -1.1740890714       10.2717470881
  H        -4.4552438217       -1.1895994848       11.0965175380
  H        -3.4580753038       -0.3696938012       10.3311907907
  O         6.7947996699        6.5215478440       26.6187888910
  H         7.3791008291        7.3807418324       26.6241843909
  H         6.0553586546        6.6505549581       27.2679654425
  O         4.7559117482       -0.2824954986       28.4685065289
  H         4.4136186174       -1.2094010586       28.5455804115
  H         5.3101036783       -0.2221415305       29.2884272911
  O         4.1520739539        3.8089257173       16.4165299848
  H         5.1628768479        3.7753586804       16.4130595988
  H         3.9419013630        4.4169445955       17.2255295928
  O         8.3088060871        1.9611733685       17.7913539506
  H         7.5766158953        1.3092423473       17.9404378409
  H         7.8425110699        2.5542739204       17.1861285132
  O        15.1498202031        1.6746127665       15.8166114304
  H        15.5796831169        2.4962820610       16.0757453923
  H        15.8469911071        1.0098765978       16.1069343021
  O         6.4179807139       -0.0793561475       18.1881967063
  H         7.0485695099       -0.8332916280       18.2397759861
  H         6.1690029449        0.0570903695       19.1579645684
  O         9.9644983376        1.2418130508       23.1054879414
  H        10.6295209288        1.1910321903       23.8464218704
  H        10.4995381338        1.1275799319       22.2866391539
  O         0.9733848060        2.3714154174       19.7438763693
  H         1.7241455407        2.5516475426       20.4151884676
  H         0.3047345619        3.1271028968       19.8758162370
  O        -6.8891507667       -0.2798486320       20.9963804070
  H        -6.0441997375       -0.7693235263       21.1506506413
  H        -6.7793591156        0.5518729028       21.5199513635
  O        11.0627182614       -5.0901390253       16.0885147542
  H        10.9997293944       -5.5062446537       17.0051962868
  H        11.6654988197       -4.3344288625       16.0547131346
  O         2.7182240564       -3.8325619721       21.9344588119
  H         2.2933086446       -3.6735098003       21.0181495542
  H         2.1995314683       -4.5805907439       22.3179365092
  O        -1.0895847506       -3.0916634258       19.4420594463
  H        -0.9875305322       -2.2781844926       18.8870211377
  H        -1.2308216595       -2.8098280160       20.3922830741
  O         3.8354195685        5.5279488951       26.6718834705
  H         4.1718135462        4.9143168673       27.3389318045
  H         2.8905079406        5.3481674038       26.5578315895
  O         3.3058715405        5.4236619988       18.6411795804
  H         3.7659489552        6.2194389544       19.0679049381
  H         3.1020368210        4.9205980685       19.4795103974
  O         0.2170323877       -4.2641151123       25.5020067391
  H         1.1260960395       -4.2266309288       25.8351318625
  H        -0.2098620269       -5.0314417011       25.8645684400
  O         0.8323292724       -1.8985688975       23.0010510899
  H         1.3995055249       -2.6813325400       22.8417617804
  H         0.8357801724       -1.6190885556       23.9331858942
  O        -3.5062237399       -6.7093376319       22.6849354873
  H        -3.5164558374       -5.8798633894       23.0725693096
  H        -4.1294960855       -6.7580833792       21.8547674460
  O         5.4820644746        1.9811308626       22.6593874866
  H         5.2057124914        2.0431070548       23.5934911674
  H         6.3190085890        2.5119440373       22.7347310000
  O         4.4602971709       -3.3366999858       23.9794719688
  H         3.9318964978       -3.0914230971       23.1035116429
  H         4.8793416577       -4.2197904348       23.8105702367
  O        11.5990283234       -7.5059628451       10.7514962957
  H        10.6972200012       -7.1562459624       10.8919765918
  H        11.7576135205       -8.0440821571       11.5652180467
  O         0.9086798667       -5.3329044560       10.8137411993
  H         0.6892052234       -4.8334996856       11.6362947105
  H         0.1949051040       -6.0069722305       10.7175821300
  O         2.2399625700       -5.6336368664       16.6153412234
  H         2.3118368821       -6.1312657792       17.4573805524
  H         2.0791984309       -4.7263542780       16.9482583623
  N         7.9630009324       -3.7755472674       20.5204973344
  H         7.2908674827       -4.5196357697       20.3424225517
  H         8.8832589307       -4.3516665263       20.5096868551
  H         7.8300492197       -3.4201127245       21.4678116185
