     193
 CELL 12.4294 12.4294 12.4294 90.0 90.0 90.0 i =    64520, time =    32260.000, E =     -1096.5195087961
  O         2.2893961555       -2.5340534879       31.1719989833
  H         3.2759074340       -2.4026141533       31.0420452925
  H         1.8780395733       -1.6000541128       31.1637341270
  O         4.6739845554       -9.9123228590       27.7527220566
  H         5.4719779546      -10.4648665381       27.5491115856
  H         5.0307565490       -9.1668150629       28.3588420830
  O         7.9654920279       -6.2155610761       29.2711552904
  H         8.4769955430       -6.5102620875       30.0513569378
  H         6.9982533857       -6.2797728672       29.5457029686
  O         4.8679416360       -1.3947996475       31.2952109471
  H         4.8003728835       -0.4727349571       31.6538910004
  H         5.6765100761       -1.8008137119       31.7411067708
  O        -6.1951416185       -6.2867002308       25.8319066603
  H        -6.5976904891       -5.7399198131       26.5132678048
  H        -5.9887759931       -5.6474780393       25.1038754892
  O         9.6233092619       -6.3276402604       35.1152214389
  H         9.2583078328       -5.4841079543       34.7576380680
  H         9.8920511550       -6.2526643779       36.0287632902
  O         3.0056735189       -2.3672486658       21.5493752336
  H         2.3733148158       -1.8536961706       22.0267887000
  H         2.7570988488       -2.3403713262       20.5948497178
  O        11.1522338022        3.4658883833       31.5032497209
  H        10.3237987770        4.0299812461       31.6355558986
  H        11.0310460479        3.0892881599       30.5906546924
  O        -0.0435743633       -6.3739501150       18.1814390574
  H         0.4294887094       -6.0397447122       18.9508909876
  H        -0.3047070871       -7.2904812948       18.3891517716
  O         4.4577867075       -4.2098253199       23.0327135484
  H         4.0995075257       -3.4473739990       22.4412307130
  H         4.2149446311       -4.9599216976       22.3611972858
  O         6.9633268629       -6.3127348751       21.1684506803
  H         7.0092264531       -5.8877486699       22.0731690027
  H         6.4282498797       -7.0840617691       21.4652465952
  O        -2.0100346432        5.3705871808       25.7108471252
  H        -1.3606201710        4.6403280661       25.5606020302
  H        -2.7863737827        4.9039634801       26.0667831160
  O        -5.7239366055       -2.3219535996       33.1453118474
  H        -5.6799148649       -1.7207725125       33.9423544552
  H        -6.2660808773       -3.1389097231       33.3346685174
  O         2.2893977511       -4.0592957671       24.5676075105
  H         3.1110086593       -4.1361098660       23.9665606991
  H         2.5533791141       -3.3321853798       25.2133443571
  O         3.5720624982       -0.3581049850       24.8629911805
  H         3.2121658300        0.5253343939       25.1791269939
  H         4.2267464102       -0.1993789372       24.1202379191
  O        15.6012087910        0.1276415457       28.7382478164
  H        15.8756593511        1.0361051646       28.5761974650
  H        16.3353587121       -0.2072472872       29.3245615658
  O         9.1349666698       -3.8604258459       20.8674710102
  H         9.5597596093       -4.1309307622       20.0388073046
  H         8.4611188089       -3.1535509868       20.6352295093
  O         6.7282892436        2.8110877674       30.7408997243
  H         7.1509783199        2.0183723069       30.2677560817
  H         6.1164194714        2.3417179308       31.4249089499
  O         3.5232539333       -2.2007692129       27.0082678327
  H         3.7407867081       -1.6377938024       26.2764113973
  H         3.1001218829       -1.6737613322       27.6809414205
  O         5.1356696317       -7.7649824159       29.5210930438
  H         4.4098146898       -7.3839418522       30.0034760216
  H         5.6299352475       -8.4147717429       30.1188193153
  O        11.3241249080        2.7754696210       16.5509957760
  H        10.9841961876        1.9548862088       16.2059272630
  H        11.3759697308        3.4680247438       15.8374412684
  O         1.7580873695        3.1441114596       29.4817305703
  H         0.7565835201        3.1121169892       29.4177449520
  H         1.9501738723        3.2987791103       30.3923056211
  O        10.6474564665       -0.2739984366       33.7765880074
  H        10.7629123963        0.4631784471       34.4414284101
  H        10.5877843790       -1.1513404789       34.1892328864
  O         2.8750299078       -8.7546421106       19.7877443741
  H         3.2204619225       -8.1300543915       20.4948729544
  H         2.0929187828       -9.2669160947       20.1455636898
  O         0.4987975797       -1.0400743170       27.1872731892
  H         1.1494677752       -0.2764112746       27.3256584099
  H         0.8611671954       -1.8366740305       27.6479463002
  O        10.2576023637       -4.6618387941       18.4251829855
  H        10.9895687587       -5.2826518364       18.1789537475
  H        10.3956401862       -3.8906772259       17.8101101747
  O         7.8086655612      -11.2796989697       33.1903584623
  H         8.0986226812      -10.7493064610       32.4042055634
  H         8.6734723061      -11.8063167427       33.4361289673
  O         6.8047031440       -4.9452578745       23.4827381720
  H         5.9219683591       -4.4264553067       23.6065764880
  H         7.5694993011       -4.3082626931       23.6499145789
  O         2.1309398011       -7.0406466883       24.2569387127
  H         2.7850455704       -7.6063246869       24.7585652397
  H         2.0967342314       -6.1471447382       24.6755419166
  O         1.0884098134      -12.4828039818       30.8169249675
  H         0.9616585775      -11.7840713880       31.5066006822
  H         1.5121578057      -12.0452957292       30.0597140674
  O        -1.7072445183       -2.5704708173       29.2449124696
  H        -1.4680038011       -1.8341018383       29.7999875167
  H        -0.8503469360       -2.9576173122       28.8156111913
  O        -1.4337026723       -2.8145914208       35.0497454662
  H        -2.1804848515       -2.9394857806       34.4035234776
  H        -1.0379913299       -3.7200455921       35.1036249265
  O         8.7812125095       -9.2243989085       22.8173339249
  H         8.8629939957       -8.2946291936       22.4203395823
  H         8.4200922083       -9.7121447512       21.9847623010
  O         1.3969329632       -0.0265986946       22.3222481402
  H         0.9060584896       -0.3793181386       23.0901361290
  H         2.0690666851        0.5990344989       22.6395477238
  O        12.6817073230       -4.8032438823       22.8447940315
  H        12.3429376353       -5.6832611761       23.0935479406
  H        13.3271897741       -4.4555417912       23.5704574544
  O        12.9465130606        1.8293886062       20.2332460201
  H        12.0494452350        2.2716221981       20.0155690648
  H        12.9382396630        1.4978428226       21.1506815386
  O         8.0340962521       -7.9537267837       27.1874360415
  H         7.9786536285       -7.2558321946       27.9288918057
  H         7.4197730761       -7.5300532467       26.5409152176
  O         8.7337982998       -3.1748279999       24.2562379108
  H         9.6773903091       -3.0740354736       23.8166778102
  H         8.8353870810       -3.2186306150       25.2474282476
  O         5.3280557175       -4.6435172153       32.3209056588
  H         5.6437855246       -4.3140665218       31.4414830425
  H         6.0262683843       -5.3419502915       32.5828300250
  O        12.4164059647       -9.2045743092       24.8502158010
  H        12.9914921937       -8.6226671248       24.2935268700
  H        12.0068653358       -9.8710890197       24.1722140912
  O        -4.3827549205        0.4883887350       17.3115761927
  H        -4.8041287037       -0.2068256211       17.8709109088
  H        -3.4156451103        0.4714886663       17.6836197565
  O         8.6912123021        4.7720262542       31.7919428968
  H         8.2508312631        5.3923196560       32.4504701344
  H         8.0081476909        4.1495860394       31.4701532173
  O         7.5510332953       -0.8697707115       35.5282728862
  H         7.8848128898       -1.7433917699       35.9461644072
  H         8.1084460952       -0.1575774611       35.9140461766
  O         5.8562560524        3.5494658910       22.3253420792
  H         6.7516832070        3.4309665265       22.6756228595
  H         5.2857753965        3.6658814904       23.1838828918
  O        10.9283704908        1.6868012956       23.1081380878
  H        10.5503624773        1.1384878568       23.8324784521
  H        10.2106553815        2.4264774111       23.1274920322
  O        17.2717355358        0.1861865882       22.5517323535
  H        18.2367080522        0.1701762413       22.3413110986
  H        16.9961568880       -0.6603562630       22.1155343085
  O         9.6014172886        1.0356817306       25.2726822987
  H         8.6760470628        1.3231728848       25.3798814156
  H         9.8361910445        0.4867524339       26.0481399958
  O        10.6714494814       -0.1551368020       30.9588583891
  H        10.7059398093       -0.2597395833       31.9663256525
  H        11.6481914031       -0.0879009270       30.7892555998
  O         1.8852052081        1.3009323091       26.1647448789
  H         2.4254643327        1.7111338359       26.7624597265
  H         1.2132841754        1.9284031467       25.8334706989
  O        -1.7774626164        0.0383281627       27.7378163036
  H        -0.8877330449       -0.3863875687       27.5610451187
  H        -2.2235591064       -0.6894151345       28.1736978415
  O        14.0674967953       -5.0885257068       20.3930333765
  H        13.4600407929       -4.7438818294       21.1270534486
  H        14.4440379172       -4.3383195422       19.8086231922
  O         5.5330612934       -4.0842941202       27.7956270739
  H         5.0112068597       -3.2862462591       27.6665121254
  H         4.8517625142       -4.7047442816       28.1115032804
  O        -0.0536862963       -1.0641576155       24.3300880210
  H         0.0502447414       -1.2080165198       25.3084322872
  H        -0.6736894484       -1.7411682411       23.9830801393
  O         4.8411637669        1.7336732831       32.3480310244
  H         4.9231443071        1.7166852267       33.2816819689
  H         4.0856431197        2.3709467220       32.0776796256
  O         4.4058875615        4.0317071715       24.9794287510
  H         4.8851087712        4.8573016419       25.2320784534
  H         4.4773890610        3.5307148415       25.8469939338
  O         3.4924012734       -6.1630242160       30.9774969191
  H         4.0980365359       -5.6758811700       31.6194121046
  H         2.9385526026       -6.7358396785       31.5319903590
  O         0.9979074331       -3.5797910521       28.5528919446
  H         1.4437808198       -4.4197197862       28.3824849698
  H         1.4796621105       -3.2871413358       29.3763690805
  O        -0.5682160607       -7.2744410164       27.9874779436
  H        -0.2823998762       -6.6463045255       28.7190626177
  H        -1.1657179196       -6.8405838718       27.2769962024
  O         7.2181138367        1.6680634207       27.0202400752
  H         7.7575901736        1.1163281794       27.6029913884
  H         7.5062229490        2.5901972938       27.2273187117
  O         6.9292956115       -3.2762713691       30.2269210596
  H         6.7460914113       -3.7204906997       29.3561718417
  H         7.8483248045       -3.6494339454       30.3759064778
  O        14.8691029269       -7.7949464485       14.8629236715
  H        13.9062912906       -7.9171762958       14.6266723284
  H        14.8967566729       -8.1564452233       15.7806553930
  O         2.9593595285       -5.3433415575       16.0396214771
  H         2.8733197809       -5.8020626993       16.9106622697
  H         2.6884442344       -6.0984139095       15.3862346596
  O         3.4140245757       -6.7696915715       21.7160072607
  H         2.9227992370       -6.8949454442       22.5906114685
  H         2.7994618235       -6.2366250885       21.1858333481
  N         8.2158386964       -3.1681248207       27.1199289937
  H         7.6318166284       -3.9118033936       27.4992378910
  H         8.9531570272       -3.0694463093       27.7837877986
  H         7.5702889507       -2.3346129198       27.1831172865
