     193
 CELL 12.4294 12.4294 12.4294 90.0 90.0 90.0 i =    95320, time =    47660.000, E =     -1096.5407768314
  O         6.7760223019       -1.4786245471       47.5080373935
  H         5.9784086164       -1.5087349247       46.9037975130
  H         6.4036314947       -1.2406559363       48.3983579317
  O        10.2707621133       -8.4566393091       44.6691954291
  H        10.8040640302       -8.5288213255       45.5114317832
  H        10.0750771071       -7.4708692582       44.5719870151
  O        11.6912091140       -1.1776470282       48.1138259317
  H        11.6650090431       -2.0538330059       47.5320002462
  H        12.0927782657       -1.3764254306       48.9959796333
  O         8.2549720919        0.9050818363       46.7241009506
  H         7.4772938643        0.4843823722       47.0929112999
  H         8.0215088319        1.9109690343       46.7240929560
  O        -1.9486440360       -5.4525522936       44.3119661712
  H        -1.1661013251       -5.7112229817       43.7416341185
  H        -1.7123153218       -4.8673010113       45.0622621946
  O        17.3365655908       -1.0374220372       54.8325164260
  H        17.9060337856       -0.3012522009       54.5274914473
  H        17.3731965142       -1.7890026636       54.2029413558
  O         7.3685530296        0.1752084466       39.2228168402
  H         8.3582622796        0.1723835712       39.1254175242
  H         7.1250543243       -0.7096074625       38.9030791301
  O        13.8161172563        4.1556894267       49.0149211351
  H        13.3284403377        4.9153239827       49.4231443050
  H        13.9625483853        4.4379659611       48.0563925194
  O         5.6972701457       -7.5205941867       36.1473157805
  H         5.4615224774       -6.6870393419       35.8151439746
  H         4.9496887483       -7.7644257299       36.7239320574
  O        12.6203731878       -1.4831740607       38.3434835674
  H        13.0226274871       -0.8872580377       39.0356170668
  H        12.4719463540       -2.3361931137       38.8067029239
  O        11.6912410407       -3.7537206265       39.1626731219
  H        10.6896282290       -3.7878345421       39.1983477374
  H        12.0747132416       -4.1992510545       39.9778598884
  O         4.3166264996        5.8337830294       42.3838708815
  H         5.0517662169        6.3980666455       42.0628001248
  H         3.7396899728        5.7005978042       41.5881856350
  O         1.4228600823        0.2449983924       52.6655731243
  H         2.2845715909        0.8253050053       52.7144187669
  H         1.4442545632       -0.4338483390       53.4289450443
  O         8.3819036630       -1.4523653351       42.6356475298
  H         7.9556563903       -1.1101400019       41.7930602055
  H         7.7972354388       -0.9468519382       43.3582387887
  O         8.1171815080        2.8931984855       43.0722874325
  H         8.6354086095        2.9872477258       43.8757501284
  H         8.7079245639        3.2744556478       42.3575806530
  O        17.3934593482       -0.6262744184       45.8163637055
  H        17.2635433773        0.1254878736       46.5073495866
  H        16.4757504249       -0.8041398270       45.3751448687
  O        17.6566777939       -3.0617245108       40.3623208974
  H        16.6561080086       -3.2691110713       40.2979264681
  H        18.1770199899       -3.8542882974       40.7673256767
  O         9.8423867998        4.5577525570       48.4593456034
  H        10.4750227427        3.8727970431       48.0975187922
  H         9.2709372003        4.1712841726       49.1971953764
  O         7.0428761455        0.0873129500       44.2413867993
  H         7.4576637292        0.1855266222       45.0855964562
  H         6.1628045953       -0.2897809160       44.5484805283
  O        11.9125546512       -6.5826347283       50.1702662545
  H        12.4889324590       -5.8025598208       49.9198142502
  H        11.2520613461       -6.7131400962       49.4568436197
  O        13.9401871800        4.7633888049       33.9938588097
  H        14.7471106380        4.3622524087       33.4548873789
  H        13.7300483283        5.6435753402       33.6042097746
  O         6.5615627750        6.6911494254       45.1976689099
  H         7.0913340477        7.2676200945       44.5914887583
  H         6.2165751740        5.8909867966       44.7593764863
  O        14.3944216277        0.0691922080       48.4748285557
  H        13.8386662429        0.5287733808       49.1105298358
  H        14.8675092682       -0.5572036963       49.0770325694
  O         7.3738401754       -8.9970157280       34.3258384247
  H         8.1040476172       -8.3364733940       34.4643520532
  H         6.8120643529       -8.7299660987       35.0643892224
  O         3.6162114576        3.2337435937       45.3667435100
  H         4.4427417616        3.6065933120       44.8285894374
  H         4.0518951766        2.8253185496       46.1644181059
  O        14.1352736649       -3.1461161678       33.0155014232
  H        14.7645644055       -3.1379805343       33.8394365225
  H        14.4499107375       -2.3925922831       32.4281152075
  O        12.1220962390      -10.2070925797       52.4501824975
  H        12.0561268683      -10.4095239261       51.4841703179
  H        12.5354133054      -11.0318003896       52.8564701623
  O        14.9741945954       -3.1942043147       39.8540546283
  H        14.4589720050       -3.8268971613       39.3547996980
  H        14.5836721898       -2.8595915756       40.7409705371
  O         8.2869501859       -4.3076742553       43.6498770714
  H         9.2199911744       -4.7708926146       43.8275704561
  H         8.3909412335       -3.3237355975       43.4510026032
  O         4.4370847590      -11.0582818119       47.6165697116
  H         3.5222963031      -11.2551380225       47.9627601288
  H         4.9636785704      -10.9432656513       48.4461961753
  O         2.9612092708       -0.9359871048       44.0356523494
  H         2.5052861059       -0.0439227164       44.0931639652
  H         3.8265027498       -0.7974404687       43.4528845428
  O         3.5412218137       -1.3783395246       50.4354881131
  H         4.4995239759       -1.7017521655       50.3473342480
  H         3.1899754242       -1.9533295781       51.1595006992
  O        12.3270484008       -7.4529326333       40.4612701262
  H        12.1032771531       -7.2658021567       39.5038528210
  H        12.0847421826       -8.4375196689       40.6061270361
  O         5.6791404891        2.0072016765       37.6846055826
  H         5.9034361349        1.1570943948       38.1601946865
  H         4.8227184789        2.4119497932       37.9638825721
  O        18.6529010778        1.0952548104       41.4665885515
  H        19.1907269501        0.8390920290       40.6312117056
  H        19.2659017941        1.4791046326       42.1775320712
  O        16.0450799146        3.9592415518       37.8710217131
  H        15.2770390502        4.1285967735       37.2879561125
  H        15.7421119644        4.3499988501       38.7126859069
  O        12.4377270244       -5.7452359371       42.3762554546
  H        13.3147140145       -5.6931505717       42.7327172538
  H        12.3832598360       -6.5734246853       41.7827390334
  O        13.9778943574       -1.7970699252       41.9324977916
  H        14.4764189322       -1.5438069340       42.7394196216
  H        13.0099676633       -2.0450743629       42.1253787347
  O        13.7920770718       -4.2522802866       49.9030611260
  H        14.4891758911       -4.0652860388       49.1987860707
  H        13.0152675493       -3.6428282642       49.7278603166
  O        19.0238179726       -4.9909079121       41.6091659640
  H        19.7717349691       -4.8015070678       42.3173885147
  H        19.3713471142       -5.5388006961       40.8999919088
  O        -1.9089995621       -0.8298410072       32.9871446339
  H        -2.7365642554       -0.3842295632       33.2921900587
  H        -1.1984270673       -0.1787275181       33.0059178593
  O        12.5427629497        1.6603574146       49.7020508895
  H        12.8336570489        2.6106507593       49.6032944603
  H        11.7763058302        1.4943956130       49.1387961174
  O        10.1661046152        0.7203136207       54.7184927512
  H         9.9273684541        0.0935755514       55.4181296822
  H         9.3537834000        1.1610575329       54.3705690770
  O         9.4440890179        2.8158453682       40.4993370619
  H         8.8896262615        2.9998209072       39.7114637118
  H        10.3391952811        2.6298665708       40.0949424149
  O        15.2014097514        4.5961722201       40.3880209291
  H        15.4821226584        3.8164341320       40.9778559107
  H        14.2200142655        4.6075677516       40.2931898901
  O        22.4893192632       -0.9804995551       39.7576232447
  H        22.7787042624       -0.4836482259       40.5397607677
  H        23.3046541529       -0.8654246746       39.1210953355
  O        14.5137481277        1.4717103598       43.9128602711
  H        13.5692497798        1.7406421208       43.5150916071
  H        14.8311790850        2.2202706486       44.4989696927
  O        15.6100011456       -3.2476381074       47.8579306261
  H        16.4765128109       -3.7497415944       47.6109190689
  H        15.9109675109       -2.6061980178       48.5401665074
  O         5.6625855282        4.0338145358       44.0177640202
  H         6.5823622821        3.7282402708       43.7895993103
  H         5.2432095867        4.4406355915       43.2223499230
  O         0.2198090063        0.4688775654       46.1050962293
  H         1.0896442342        0.5943032431       45.7567989428
  H         0.1919788972       -0.0904251430       46.8974849400
  O        18.8354102369       -2.1828448884       38.0110681340
  H        18.5536688629       -2.5425670220       38.8951873122
  H        19.2070220599       -3.0364783975       37.5477499800
  O        11.5894090269       -3.3729076620       46.2176608756
  H        11.2050548887       -2.5284432829       45.8271195594
  H        12.5545379915       -3.2945302587       45.9752918152
  O         3.5836422287        2.3559813214       41.5292485619
  H         3.2934242193        2.0041041196       42.3802286641
  H         4.5365513098        2.1509559385       41.4501005596
  O         8.1246972999        3.0836629361       50.1991022467
  H         8.6784555978        2.3139448597       49.9226168418
  H         7.1991200316        2.7815971025       50.1938631407
  O        12.2245082255        2.4539791479       43.1109186594
  H        11.4751090092        1.8459553160       42.8932393518
  H        11.7972629312        3.0536274882       43.8269598054
  O         8.8719702098       -4.1165454450       51.5638301838
  H         8.7011171866       -3.4559490525       50.9127784231
  H         8.4875334867       -4.9875692730       51.1936794567
  O         5.4854650965       -4.6581682861       47.4115350999
  H         6.2724047769       -4.2118968086       47.7833117136
  H         5.7915534492       -4.9527721326       46.4927620371
  O         2.3594347695       -5.4131800645       43.8780601780
  H         2.1405982481       -4.6735416252       44.5197488425
  H         3.2019598505       -5.3037383891       43.3566900543
  O        11.5711926882        3.0199318668       46.8262693194
  H        11.9821345674        2.0772677947       46.6291811686
  H        12.2992408081        3.6495923407       46.9602473671
  O         9.7302735619        0.6067168464       48.9067223477
  H        10.4730870397       -0.0703806875       48.8517046500
  H         9.3990715243        0.7333495704       48.0345373520
  O        21.2837776162       -5.2284025466       34.3746042323
  H        20.6008884167       -5.6113013159       33.7527390950
  H        21.5589181069       -6.0434386341       34.8668778234
  O         7.8944218164       -3.6485799763       36.1044976003
  H         8.3576193896       -4.2761637987       35.4847116449
  H         7.8449851466       -2.7694358903       35.5446665119
  O         7.3937545159       -6.6168221161       38.6324338192
  H         7.9593046760       -7.4300038069       38.5990379556
  H         6.7755934133       -6.6911253246       37.8698819770
  N        11.4934923805       -2.6807979672       42.3433313151
  H        11.5496467158       -3.6564748840       42.5244828391
  H        10.7477699534       -2.2394076825       42.8967743956
  H        11.1686268151       -2.6558440323       41.3725825781
