     193
 CELL 12.4294 12.4294 12.4294 90.0 90.0 90.0 i =    75320, time =    37660.000, E =     -1096.5204586557
  O         4.9907151960       -0.8340862120       37.8149367797
  H         4.5278985274       -0.2322734426       37.1993011731
  H         4.2862991893       -1.0461706122       38.4313666598
  O         5.1160423466       -8.5947433975       34.3779874373
  H         5.8942035849       -9.1996849346       34.4440500928
  H         5.4209880048       -7.6988285890       34.5264579090
  O         9.3804631855       -5.2470225603       35.3922800380
  H        10.1110939389       -5.2020218082       34.7159778635
  H         9.2881811596       -6.1339764185       35.9711671658
  O         7.7338250960       -1.4414893673       36.0614866688
  H         7.5302358163       -0.7888560840       36.8067481197
  H         6.9780557842       -1.9941436690       36.0919434687
  O        -5.1578404448       -5.8346848957       31.7997156757
  H        -4.9183737860       -4.9088665753       32.0694675417
  H        -5.1060071392       -5.8536978938       30.8179927480
  O        14.0069015965       -4.1354141887       43.3068816460
  H        13.3454875185       -4.3958819211       42.6429944524
  H        14.6756255708       -4.8365741364       43.2803680232
  O         5.8375007211       -3.5833272881       26.0887735724
  H         5.6500673013       -3.0430107096       25.3196963376
  H         6.7512150397       -3.3524156767       26.3037694991
  O        12.7513101614        2.8420601910       37.4989933732
  H        12.6033458862        3.7767962077       37.7589206002
  H        13.1141147400        2.9384486026       36.6355106520
  O         1.5905216154       -7.6088748232       28.4367744731
  H         1.7134841202       -7.8779114378       27.5312506688
  H         1.1724616274       -8.3759028477       28.9402477387
  O         8.5547456800       -3.4254166053       26.8418930673
  H         8.9973701676       -3.3855878464       25.9482896744
  H         8.6101621579       -4.3569202628       27.2267577896
  O         8.5928305954       -5.5591610822       28.4357728895
  H         9.1663145152       -6.3284684172       28.3207022612
  H         7.7237962257       -5.8941428926       28.6569303229
  O        -0.0261975315        5.8733173571       31.1338998826
  H         0.8758270941        5.5950773625       30.9636474802
  H        -0.5448880186        5.6715352696       30.3402874097
  O        -2.3691921656        0.5740001420       39.5751596579
  H        -2.0949729308        0.5779333049       38.6519004612
  H        -2.0294888916       -0.3255981451       39.8942467495
  O         5.3164603891       -2.7443478024       30.1178927744
  H         5.9962453798       -2.3213697442       29.6213427068
  H         5.4724509947       -2.4527167360       31.0760464413
  O         5.5978236126        0.7914166963       30.9597716259
  H         5.0366328172        1.5636427944       31.0471831813
  H         5.6122911465        0.6551875937       29.9629582888
  O        15.9384566704       -1.8773360765       34.4725150723
  H        15.8092959411       -1.1831429467       35.1969215630
  H        15.0746067662       -2.2490293040       34.2203517700
  O        13.0513092752       -5.0000046424       28.5992309222
  H        13.2312497579       -5.9672696892       28.5264616754
  H        12.6252171119       -4.6947218625       27.7958275773
  O         8.5929876662        2.4023532520       36.7339219578
  H         8.3389316023        2.3470508932       35.7293861116
  H         7.8444157193        2.0800399911       37.3451297406
  O         5.9163799406       -1.4902827045       32.4987519565
  H         5.7967740898       -0.6393677748       31.9779481392
  H         5.0966852155       -1.6115375834       32.9689405785
  O         8.7103601126       -7.4038136777       37.0308926837
  H         7.8681088134       -7.1251423303       37.5160060089
  H         8.6068991495       -8.4093829558       36.8728275853
  O        13.5997751494        3.4473239255       22.4736838103
  H        13.8722378005        2.7451412767       21.8384720402
  H        13.0061796394        4.0092084688       21.9494289667
  O         3.4894565583        3.4275759277       36.6179184520
  H         4.1451092952        3.5476964776       35.8604965737
  H         2.6338156756        3.5558645044       36.1322282766
  O        13.1258788694       -0.6403720030       36.4023118364
  H        12.2392237978       -0.1416191094       36.4716602140
  H        12.9352803140       -1.4776518226       36.8793787939
  O         4.3198074907      -10.1231146304       26.9365288061
  H         4.5689935433       -9.7396105260       26.1187886483
  H         3.4888306398      -10.5326443483       26.8570322117
  O         1.9274326570        1.2513622555       33.2806091093
  H         2.5426715828        1.8197253323       32.7168263061
  H         2.5317493950        0.7126495489       33.8185661794
  O        12.2534678030       -5.3273054939       22.1992990489
  H        12.3949474365       -5.3226927505       23.1846589585
  H        12.6202849306       -4.5283237796       21.8331282943
  O         9.8860203610       -9.8439140484       41.6515425129
  H         9.7543586738      -10.4188835204       40.8519599812
  H         9.0407918481       -9.9224234691       42.1395445201
  O        10.8315458750       -1.9161940373       27.5545938873
  H        10.2207760357       -2.6164398117       27.4524360466
  H        11.1206389686       -2.0970840395       28.5045474536
  O         4.5232986926       -4.8997096493       31.5472335961
  H         5.3071874980       -5.3977247675       31.8743982980
  H         4.8501225778       -4.3374293458       30.8011007055
  O         3.1183429042      -11.8849938819       35.8807882720
  H         2.2430540047      -12.3026660390       36.1926233414
  H         3.1908757226      -10.9724406143       36.2897240488
  O         1.3605720330       -3.0160989937       33.3411648508
  H         0.6934940028       -2.3159435780       33.2901970958
  H         1.2872780102       -3.4965791944       32.4613403966
  O         0.2566076152       -2.9610430108       38.2115741904
  H         1.1207730849       -2.5489588046       38.3077321162
  H        -0.2985192236       -2.5031144241       38.8587650110
  O        10.5389235328       -7.1927553939       28.8970428735
  H        11.2547983649       -7.1675001706       28.1698795453
  H        10.3082415397       -8.1570716062       28.9037670615
  O         2.4556475178       -1.4992948769       26.7640826488
  H         2.4794125840       -1.9665644384       27.6682939211
  H         2.2018026446       -0.5244974608       27.0393686859
  O        15.0662585004       -1.8248232634       29.6384207430
  H        14.5613501497       -2.5878519719       30.0443400336
  H        16.0030977805       -2.0013429072       29.8824606120
  O        14.0840169399        1.3272964571       27.0026116642
  H        13.7137151584        1.6075674607       26.1371583326
  H        13.4668028042        1.5964285837       27.7501368176
  O         8.5583047426       -7.8138217230       33.1095321096
  H         9.4943922402       -7.6438082190       32.9998619554
  H         8.1284017553       -6.9985019173       32.7267032716
  O        11.4405446053       -1.7871526548       30.4187109536
  H        12.1812118836       -1.1287867839       30.6475822961
  H        11.3760251978       -2.6030763488       31.0542433587
  O        11.5005985723       -7.3082754619       38.3970858525
  H        12.0122563772       -6.5099790042       38.0758986205
  H        10.5981380199       -7.3672147291       38.0049759697
  O        15.3732534731       -7.1076891372       30.6647249758
  H        16.1795818299       -6.6287930688       31.0764597865
  H        15.7034121770       -7.1804435396       29.7628894544
  O        -4.1570984039       -0.0612847955       21.1206332928
  H        -4.5130845884       -0.6359248996       21.7888033788
  H        -3.1865846421        0.0515406156       21.2101260514
  O        10.9844773386        0.8560987824       36.7553935063
  H        11.3522940594        1.6923622501       37.0040322266
  H        10.0413338159        1.0041212284       36.5436525689
  O         8.7791233494       -0.2360993373       43.1946258217
  H         9.6643162123       -0.7449146663       43.1225726224
  H         8.4425541263       -0.4050962005       44.1179554014
  O         5.3841423242        3.2902107527       29.2603557272
  H         5.2177399958        2.9680281998       28.3955992407
  H         6.1851229393        3.1249902995       29.7414229663
  O        12.7963592709        2.3848952240       29.3065949009
  H        13.2498101209        1.7149003456       29.8880132327
  H        11.8258623899        2.2212511095       29.5042142257
  O        19.3910415904       -0.9250838462       28.8335513662
  H        20.0412313520       -0.6968760406       29.5317790774
  H        19.9325497417       -1.2820124181       28.1045890781
  O        10.3889356039        1.3444063724       32.5158502863
  H        10.6357986751        2.2917002026       32.6424631955
  H         9.8585826617        1.3544147454       31.6453802277
  O        13.1039580867       -5.2758766287       37.3845408176
  H        13.7612018514       -5.7943547647       37.9195112322
  H        12.8518303973       -4.4275746395       37.7883529749
  O         3.5277527085        2.9823488514       32.1458582040
  H         3.8556264078        3.3755378129       32.9822532709
  H         3.1709187335        3.7122639680       31.6054070753
  O        -0.7792334626       -0.9635688725       33.4862708280
  H        -0.9617099451       -0.4798624005       32.6642136921
  H        -0.2244268523       -0.3889481730       34.0084785917
  O        16.2614223183       -4.8281118800       27.7652181815
  H        15.4573222456       -4.6276935154       28.3033873114
  H        16.7324050533       -4.0410239997       27.4032574464
  O         7.8793279217       -3.6628463424       33.1349417174
  H         7.2151557415       -2.9196565108       33.2196020112
  H         7.9981956368       -4.0602807505       33.9938395047
  O         1.1428729394        0.1178021330       30.7516248473
  H         1.5535848615        0.3756175050       31.6056586980
  H         1.7434489992       -0.4287684519       30.2515557274
  O         7.1238202806        0.3200176266       38.3272606247
  H         7.7249361735        0.3889617909       39.1737056386
  H         6.2014552081        0.0869494194       38.5013741978
  O         7.6082244213        2.9126709805       30.7935552128
  H         6.9648317868        2.2288839999       31.2132243897
  H         7.8133591403        3.5761636164       31.4776184843
  O         6.2359040033       -6.1244652420       38.3031597918
  H         6.1642964298       -5.1167889012       38.4008269424
  H         6.0753766008       -6.3269108405       39.2183522340
  O         2.6505581161       -6.7155622405       38.4238252021
  H         3.2856616701       -6.1103084206       38.8907805267
  H         3.0742155677       -7.4564256640       37.8199278313
  O        -0.9762886208       -7.6585379782       33.4095490936
  H        -0.8529472932       -6.8668443353       33.9834847813
  H        -0.4751269605       -7.4597744591       32.6227164524
  O         7.4775614924        2.4127054401       34.2737823928
  H         7.7201445448        1.5303066494       33.8679828358
  H         7.8696862044        3.1047485032       33.6696969252
  O         9.6920643940       -2.8275864636       37.0607236675
  H         9.7112865587       -3.6536926459       36.5090517013
  H         8.9599502135       -2.2693543485       36.5858924486
  O        18.7042705583       -6.0306902926       22.7718116050
  H        19.5733328858       -6.3786135938       22.3835909688
  H        18.7974113502       -6.2517987386       23.6991554332
  O         5.6575100461       -3.2984593170       23.1040023372
  H         4.8115395573       -2.8655103972       22.7899789309
  H         5.7542280160       -4.2543427341       22.9694765374
  O         5.8787477239       -6.5806774000       28.9437535719
  H         5.6918880510       -7.5686201524       29.0517884745
  H         5.0449107804       -6.1167109370       29.0781424782
  N        10.7871695584       -3.8759460204       31.9511673239
  H        10.0380702681       -4.3558171561       31.4471116582
  H        11.3561193457       -4.6619646429       32.2056908946
  H        10.3887679231       -3.4557600938       32.7716074058
