     193
 CELL 12.4294 12.4294 12.4294 90.0 90.0 90.0 i =    85320, time =    42660.000, E =     -1096.5310738757
  O         6.1123456579       -1.8707207040       41.9191936138
  H         5.5485333099       -1.7170382654       41.0716680248
  H         5.5414990675       -1.4409705545       42.6278896566
  O         7.3420289395       -7.7549181887       39.4218086358
  H         8.0098117138       -8.4348009165       39.6610120648
  H         7.7844514596       -7.0331788274       39.9267778500
  O        11.1946539791       -2.8035481484       41.1536305871
  H        12.1518537631       -2.8831930653       40.9443487897
  H        11.0393385017       -3.3121300562       42.0236430522
  O         8.0911968769        0.0711554639       41.9424392274
  H         7.4639595772       -0.6828954978       41.8989617667
  H         7.5421785371        0.8318620244       42.2622730333
  O        -2.9661908700       -6.1276514428       36.7022252246
  H        -2.7569365624       -5.3658918747       37.2490524235
  H        -2.6215793290       -5.8866461876       35.7706781078
  O        14.9924914554       -3.0257212762       48.6234204322
  H        15.9595632931       -2.9124902283       48.3467272659
  H        14.8561506709       -4.0148126508       48.5802771312
  O         7.3111465411       -0.0197674402       33.2174131283
  H         8.1143181251       -0.4227746210       33.7074374081
  H         7.1459488644       -0.7900197519       32.6658886203
  O        14.3126812402        4.4374086523       42.8802382716
  H        14.0164577955        5.2134839797       43.3239026537
  H        14.6024477930        4.6161128830       41.9138260152
  O         6.0161227073       -7.9120134720       31.8556275787
  H         5.4025270147       -7.1963879968       31.4545431284
  H         5.3739395206       -8.5260889503       32.2149588727
  O        10.8073644298       -2.8962443288       32.4115230742
  H        10.3501679358       -2.3319225868       31.7935801491
  H        10.1138778865       -3.5786478253       32.6205918260
  O        10.1922965757       -5.3330314150       34.0613083440
  H        11.0945873406       -5.7088687256       33.9951708129
  H         9.5125836428       -6.0259626052       33.6743965263
  O         1.7599162406        6.4883836042       36.3138939508
  H         2.6615689975        6.2477389395       36.0806546667
  H         1.2190222411        6.1133694456       35.5721987941
  O        -0.5136676399        0.4124395951       45.8014840251
  H        -0.0827677215       -0.1652443062       45.1554821549
  H        -0.4535554873       -0.1780647171       46.6078968167
  O         8.2840799591       -2.6956770021       37.0538333819
  H         8.5918418658       -2.6483886706       36.0798083405
  H         7.8360434391       -1.8073273407       37.1954152569
  O         6.3625517979        2.0005828487       35.8542879344
  H         5.7870031911        2.6924231590       36.2599525855
  H         7.0981898956        2.4584576603       35.4584595145
  O        17.6237256905       -1.0002574681       39.5439013715
  H        17.4742059969       -0.1173006420       39.9873062111
  H        16.7197076926       -1.2648272073       39.1855379257
  O        15.6990879358       -4.5216926860       33.0343389011
  H        14.8147713900       -4.1364715953       32.8440670551
  H        15.6424946920       -4.7938953945       33.9561196433
  O        10.2905209008        3.6178665820       42.9118105659
  H        10.0823828051        3.5053401594       41.9656155463
  H         9.7060005188        2.9467560433       43.3975406223
  O         6.7340084831       -0.3722861877       37.2468365452
  H         6.7176937825        0.5226224030       36.8159923444
  H         6.2547719895       -0.3003447109       38.1103796094
  O        10.2353385578       -6.1416731697       43.1138989459
  H         9.4619123359       -5.8164039030       43.7053566917
  H        10.2545147207       -7.1819933886       43.0747294997
  O        14.9146863094        4.4150269516       27.8928687144
  H        14.7489843799        3.5565371256       27.5512194384
  H        14.6292472129        5.1755618105       27.3017363923
  O         4.9562517756        4.2146264861       41.1111672635
  H         5.7225718191        4.2964038688       40.4460761488
  H         4.0869209264        4.0728859851       40.6563900444
  O        13.9884081750        0.3276186140       41.8444542795
  H        13.5548372506        0.9557440874       42.4816277986
  H        14.2786943308       -0.5267676666       42.3554266147
  O         6.5111105154      -10.4867461916       30.4871811755
  H         6.3835770253       -9.5062442348       30.6376926348
  H         5.8590092597      -11.0522651540       30.9799559593
  O         3.8627599669        2.0888513839       38.1405726776
  H         4.3452378811        2.8720105163       37.7482186786
  H         4.1812726344        2.0098870647       39.0915049531
  O        13.7045576687       -3.6539091474       27.8860914991
  H        14.3643147564       -3.7245668193       28.6317394157
  H        14.0807474263       -2.9413400152       27.3372477792
  O        12.2060052621       -9.1829778180       46.4603994643
  H        12.2227380854      -10.0602030466       46.0430889000
  H        11.5817554238       -9.3165793585       47.2327708803
  O        13.5536498873       -2.6573433157       33.1741182548
  H        12.6275071543       -2.9403286180       32.8956803723
  H        13.5610857409       -2.5777647600       34.1059832037
  O         6.6828048856       -5.2232530186       36.6316775382
  H         7.4285716580       -5.8418654521       36.4428764574
  H         7.1136198145       -4.3527690186       36.5681940904
  O         4.1959282400      -11.1427286194       40.8269166377
  H         3.2599113485      -11.2437006872       41.2601589307
  H         4.7049136845      -10.7059380629       41.5556579304
  O         2.7960115520       -1.7386027825       38.7325942911
  H         2.0196250818       -1.1421676657       38.6852909624
  H         2.8329278672       -2.1257590606       37.8351733388
  O         2.4940957358       -1.6510056905       43.5059852797
  H         3.1787114196       -1.0709507269       43.8171204470
  H         1.8623375204       -1.8991265461       44.1750680088
  O        12.7818943202       -6.6604057085       34.0960943924
  H        13.2171747169       -6.1597493461       33.3814874685
  H        12.9073109994       -7.5986339878       33.9602713493
  O         4.4615446441        0.4987564165       31.8485501588
  H         4.6814678555        0.0199317335       32.6745648711
  H         4.0007571791        1.3930081511       32.1147999255
  O        17.2616287293       -1.7030293304       35.2401661147
  H        17.6416348721       -1.7972168774       34.3222449255
  H        17.8746968925       -1.3618175202       35.9279255205
  O        15.9097648472        3.0432883314       32.2841852415
  H        15.3456475638        3.6116787250       31.5778631590
  H        15.3893347378        2.9167182725       33.1526032583
  O        11.2098397133       -7.8979283215       38.2038795359
  H        12.0048636139       -7.4412213431       38.6686148198
  H        10.6236245136       -7.3296898247       37.6838638783
  O        12.7030766481       -0.6711196831       36.1044706446
  H        13.7084903695       -0.5042768582       36.1208037190
  H        12.6081038407       -1.6537382784       35.9494842071
  O        13.1899464031       -5.6152471313       43.9056674431
  H        13.8092093135       -4.9577284990       43.5212515748
  H        12.3225082580       -5.6004382480       43.4609380648
  O        16.9925053096       -5.8817669248       35.5359310756
  H        17.8345462793       -5.4041581072       35.9101421018
  H        17.2069818119       -6.2759395932       34.6381282038
  O        -2.4230300771        0.0720572775       27.4504205341
  H        -3.0302482997       -0.1012755425       28.1665885545
  H        -1.5679964675       -0.1752248467       27.6693620232
  O        12.8324170225        2.3138394957       43.6267773581
  H        12.9985599054        3.1440905788       43.1641011280
  H        11.8856749505        2.2708042713       43.6179093699
  O        10.5206287172       -0.0152714335       49.5182403493
  H        11.4877564207       -0.3106459564       49.4134864425
  H        10.3529483232       -0.1888437978       50.4480267529
  O         8.4823672286        3.3289188247       34.8771979045
  H         8.8135102895        2.8721718171       34.0533295193
  H         9.2932793735        3.1996632959       35.4289043890
  O        14.8882353400        2.4463482434       34.7202728470
  H        15.1567658499        1.6238371952       35.1395790934
  H        13.9178832032        2.5583658296       34.7714569901
  O        21.7359183309       -1.3236493778       34.5793768803
  H        22.1338755554       -0.8974815481       35.3678533320
  H        22.4858453663       -1.6644289893       33.9986110074
  O        13.3570427237        2.5403802336       38.3310056803
  H        12.8934223675        2.8574033005       37.5551449250
  H        14.2722100638        2.2381110921       38.0454589989
  O        15.2244119484       -4.3416028000       42.5889266024
  H        15.9005625844       -5.0768407438       42.7321553593
  H        15.4544877257       -3.4339588062       42.9683451093
  O         5.4238983977        4.3794452662       37.1813630390
  H         5.9355060028        4.5326883296       37.9765200150
  H         5.0915652879        5.2377920936       36.8236506627
  O         0.3095532329        0.0164344650       39.3933645804
  H         0.4690607936        0.9447385957       38.9994672354
  H         0.5924403346        0.0770998625       40.3520319900
  O        17.8051602018       -2.8064129709       32.6542005686
  H        17.1553787501       -3.4673070356       33.0100178854
  H        18.7130488202       -3.1804598969       32.8446991237
  O        10.0322786521       -3.7772896071       38.5523963327
  H         9.2050987922       -3.3520605690       38.0479878223
  H        10.2647294762       -3.3370303467       39.3968661964
  O         2.8470214213       -0.0022397454       36.2075593632
  H         3.3618681547        0.6268508764       36.7966145549
  H         3.5114293073       -0.4610734209       35.6258412873
  O         9.5097950717        1.6540195161       44.9387930836
  H        10.2750284646        1.1045917701       45.2367357955
  H         8.7417941196        0.9998365999       45.0798253799
  O        10.6780899451        2.6901719815       36.3746282343
  H        10.4590061500        1.7972812622       36.6864188026
  H        10.9447155532        3.2471204035       37.1390743281
  O         8.1149041959       -4.1768547141       44.7928002849
  H         7.5336479265       -4.4050492355       43.9829180657
  H         7.8883639797       -4.9156350782       45.4895890217
  O         4.8089037325       -6.0953004213       42.5910692078
  H         5.6374428919       -5.5431823478       42.5087540458
  H         4.9563478567       -6.8240316141       41.9690025666
  O         0.9584844252       -6.3370060160       38.9220725354
  H         1.1259646268       -5.4128087810       39.2548358549
  H         1.2703316960       -6.2535225697       37.9568226445
  O         9.5576126578        3.2947817131       40.3110381370
  H         9.7711712887        2.3571098018       40.1558941282
  H        10.0161503603        3.8468373333       39.6308991727
  O        10.3991381641       -0.9343904129       43.0945536254
  H        10.5766493070       -1.3374522414       42.2023733730
  H         9.7499691043       -0.2573265341       43.0730675590
  O        21.3695035961       -5.6606847806       28.3786270237
  H        21.8653729733       -5.1295465678       27.6660192944
  H        22.0420358421       -5.7664105982       29.1058600321
  O         6.8995122724       -4.3818631141       29.9314571052
  H         7.6412633735       -4.5297279620       29.2588184130
  H         6.5194060016       -3.4899202192       29.7445273378
  O         7.9281253548       -6.8950381783       33.4802466932
  H         8.0766851096       -7.6179100106       34.1409165562
  H         7.1382675587       -7.3392786387       32.9928794236
  N        11.7742804503       -3.3374524706       36.0940584166
  H        12.5205696151       -4.0176003567       36.1160905218
  H        11.4843223572       -3.1866375723       37.0269923675
  H        10.9737097092       -3.8452415921       35.5871531209
