     193
 CELL 12.4294 12.4294 12.4294 90.0 90.0 90.0 i =    50920, time =    25460.000, E =     -1096.5022988115
  O         0.4407087351       -0.6704655580       24.3302054753
  H         1.3115815427       -0.4626080325       23.9741851334
  H         0.0246783628        0.1430321070       24.5628458773
  O         1.6968282328       -8.1780711925       19.9918779580
  H         2.2662212746       -8.9989321421       20.1224819096
  H         1.8678207254       -7.5528662264       20.7809130461
  O         4.2029833501       -6.3363805174       22.7226974486
  H         4.5416104995       -6.3239811806       23.6642357697
  H         3.3798614683       -6.8922288989       22.6687765613
  O         2.7239773821        0.1069330401       22.5915140118
  H         3.5002262489        0.6726756827       22.6798910041
  H         2.8680665345       -0.5361946820       21.8658790786
  O        -7.6172935339       -5.0038521854       18.8058366659
  H        -8.1679432544       -4.4269060137       19.3634673187
  H        -7.4025277201       -4.5077629217       17.9836701751
  O         6.9973165218       -5.2147454690       27.9864537914
  H         6.8686154687       -5.6770727254       27.1446629175
  H         6.6510539883       -5.8857828267       28.6783059859
  O        -0.4680463724       -2.4087493442       14.0414885999
  H        -1.1784130236       -1.9541595151       14.5678037709
  H        -0.0711503772       -1.7664121419       13.4324354087
  O         7.7756772458        4.6642636769       24.8505965666
  H         7.1242694228        5.4376097679       24.9639321870
  H         7.5958307398        4.2374052795       23.9737897956
  O        -1.6546803672       -7.0606677977       11.3367262564
  H        -0.7527188550       -7.3393609447       11.7591464478
  H        -2.2891532881       -7.3905876638       11.9877025935
  O         1.9482801098       -2.3567122265       15.6312040837
  H         1.0798758337       -2.4260701987       15.1666891872
  H         2.4409247482       -3.1409438256       15.1802204970
  O         3.7956756399       -4.8027486498       14.2119807312
  H         4.1414696818       -4.2337238084       14.9760058701
  H         2.9824562088       -5.2773281792       14.4397351644
  O        -6.1941968669        5.3044443044       17.4799169451
  H        -5.7591477967        4.4681427833       17.6950749883
  H        -7.1371989818        5.0667135031       17.3335116196
  O        -7.2543529488       -2.0368967550       22.2371120047
  H        -7.7071689705       -1.5161895003       22.9376116005
  H        -7.9182437005       -2.7054283201       21.8757908932
  O         0.4694008860       -3.9338787903       17.2724677726
  H         0.9435293585       -3.2028149037       16.8708611738
  H        -0.4484008252       -3.6059530342       17.2944492759
  O         0.8404494978        0.5769525536       16.4051722276
  H         0.4904147621        1.2937375749       17.0039043582
  H         1.1695232039        1.0674677888       15.6174912994
  O        12.3769002383        1.8031428190       21.1615346845
  H        11.7162987897        2.4095908004       20.6856651014
  H        12.0887477140        0.8681036169       21.0482808986
  O         6.8525521955       -3.5723017735       11.2673298133
  H         7.4390421414       -3.8942963907       10.5760697721
  H         6.0887242078       -3.0907967995       10.7210430585
  O         4.1440038090        2.5393273055       22.6230715154
  H         5.0322805238        3.0122556522       22.6622818132
  H         3.5523262650        3.1307496584       23.1553984175
  O         3.3206634674       -1.0695963876       17.9232686139
  H         2.6881203827       -0.4976151469       17.4692433391
  H         4.1108310934       -0.4700005687       18.1226342823
  O         1.6265994927       -7.0623896370       22.6503686795
  H         1.1426422290       -6.3620498855       23.1765493558
  H         1.2000345997       -7.8883916304       23.0187133772
  O         7.0339871831        3.3760454979        9.9806461237
  H         7.6756289828        2.6345674124       10.1055196119
  H         7.5748740669        3.9725042116        9.3313742330
  O         0.6894003791        2.9593198322       23.4905213737
  H         0.6808879082        2.5144504918       22.5473955795
  H         1.1120454167        2.4187059293       24.1339015178
  O         7.8982443884       -0.4003208850       25.5966834532
  H         8.4883122587       -0.1613595124       24.8516386275
  H         8.2305786439       -1.2749782040       25.8545936173
  O         0.0281822585       -7.6749382382       13.5071868922
  H         0.1137012014       -6.9762184202       14.1830165744
  H        -0.6921420722       -8.2335940672       13.7817651566
  O        -2.9717963976        1.6661996171       19.5889231866
  H        -3.6286909171        2.2737863686       19.0327371565
  H        -2.5663668565        0.9362302721       19.0263941277
  O         9.1635792567       -4.6987921888        9.6272237457
  H        10.0417533115       -4.8869479530       10.1644852966
  H         9.3744434415       -3.9401301708        9.0038958304
  O         5.2401781385      -13.1114924637       24.5015933805
  H         4.7153819466      -13.1356227134       25.3002891924
  H         6.1698798716      -12.8804720356       24.8016218507
  O         4.5610432514       -3.0521722568       16.4344256545
  H         4.0878204928       -2.3419664764       16.9872029359
  H         5.5735791818       -2.8073317246       16.3583721080
  O        -1.9437304053       -7.5190579117       17.3965859305
  H        -2.0247994283       -7.4276078962       18.3744062972
  H        -2.0553839705       -6.6444278689       17.0259212505
  O        -1.6691515623      -10.9101955884       24.3287325203
  H        -2.1477308592      -10.2330092117       24.8958560062
  H        -1.0267186681      -10.3083098462       23.8459828424
  O        -2.6076474379       -2.2106560098       20.4202076377
  H        -3.4046349837       -1.6311082488       20.4686283368
  H        -1.8496368784       -1.7777245522       20.8702176005
  O        -4.1302788664       -3.1314165241       26.0591949231
  H        -4.6637093916       -3.2729475166       25.2391492796
  H        -3.2845624393       -3.6027934184       25.9917523636
  O         5.6433079658       -9.6101371004       13.7501593765
  H         6.3909970056       -9.1304126399       13.2774153261
  H         5.4740368795      -10.3593500981       13.1474799913
  O        -2.0071462017       -0.5201689881       15.7518873028
  H        -2.8453522556       -0.0731305840       15.6211805797
  H        -1.2986077842        0.1604546172       15.8465198532
  O         9.6753295134       -5.0428470187       16.3317149473
  H         8.6457798882       -5.0464369874       16.1057044642
  H         9.7047918697       -4.2476667139       16.9479439832
  O         9.6656201111        3.3494958943       13.8138060501
  H         8.9381616918        3.9338416408       13.4838064695
  H         9.2805174255        2.7369868990       14.4531987025
  O         5.5930229365       -7.1092583158       20.4835984532
  H         5.1417773477       -6.6847312823       21.3105688547
  H         5.3402551280       -6.4545688265       19.7657653227
  O         7.2443527263       -2.4042665071       16.3389721753
  H         7.5410082105       -2.8458387662       15.5088493459
  H         7.4858671866       -3.0471835475       17.2010039621
  O         2.5532144996       -2.9809416687       25.0302125923
  H         2.8015136569       -2.1002074965       25.4268015113
  H         3.2262025383       -3.6676498512       25.2873309368
  O         8.1710817773       -9.1231358075       17.7294308235
  H         9.0089576405       -8.6802742335       17.4173141836
  H         8.0199781241       -9.8082933292       17.0275533722
  O        -5.2207010313       -0.6932893618        8.6881624023
  H        -6.0000109476       -1.1346968952        9.0222020557
  H        -4.6069623910       -0.2824901177        9.3942860466
  O         5.8848160618        6.7110928791       25.0842885935
  H         6.1341773112        7.5766263301       24.5407430543
  H         5.1471816564        6.9904701693       25.7026452684
  O         3.4842209046       -0.4078068561       26.9023070961
  H         2.9679273896       -1.1557914223       27.3100639136
  H         4.4015293841       -0.3691002522       27.2570407203
  O         2.5450571261        3.1611901839       15.9228568230
  H         3.1842500710        3.7198079589       16.4099832837
  H         1.7261402084        3.1814594280       16.5001927175
  O         7.7555268592        1.6832098032       15.5132990390
  H         7.2508094339        0.8900358961       15.4886148155
  H         7.2483867147        2.3469176943       15.0949536569
  O        14.2502714516        1.4744691895       13.7421158967
  H        14.5925159563        2.3990249378       13.9878137796
  H        14.9884945651        0.8352883764       14.0357199720
  O         5.9663505026       -0.2571117187       15.5707387434
  H         6.5247944139       -1.0590762523       15.8460472645
  H         5.8270999223        0.1000157107       16.5074584376
  O         8.9966291588        0.9908924186       22.2821784523
  H         9.6613781953        1.3532133151       22.9503683211
  H         9.2770437333        1.2500950559       21.3907918209
  O         0.2363758725        3.3136922427       17.5014316155
  H         0.4898837177        3.6198949979       18.3685511445
  H        -0.5771626802        3.8479366349       17.2958811689
  O        -6.8128317856        0.4467977659       18.7728337706
  H        -6.2090095513        0.1375394711       19.4835408574
  H        -6.9974210854        1.3608727467       19.0458199136
  O        10.5832608717       -4.6619665211       13.5700144593
  H        10.2765263364       -4.9335504617       14.4487363708
  H        11.1075570536       -3.8419632712       13.7399265551
  O         1.4675140320       -2.5059129061       19.9585815286
  H         2.0330639810       -2.0662882257       19.3052690936
  H         1.0290671141       -3.1423479279       19.3958772105
  O        -1.7659620646       -2.6833114120       17.8039441745
  H        -2.0164034335       -1.8984257426       17.2777408631
  H        -2.0249681397       -2.4214742143       18.7947787980
  O         3.2310273234        4.2211576817       24.8871986510
  H         3.9842471354        3.9246711926       25.4179285726
  H         2.5418410997        4.3744461055       25.5613430354
  O         3.2663333291        5.2307114836       17.7242862739
  H         3.6440408501        6.0695285909       18.0987255337
  H         2.6498553250        4.8434591697       18.3521369927
  O         0.3398901545       -4.6144310537       23.8107509384
  H         0.9821991085       -3.9805878966       24.1870492572
  H        -0.3521803595       -4.8908338479       24.4935879981
  O        -0.4568823844       -0.9172890891       21.6372094707
  H         0.3134718792       -1.4443694120       21.2206521459
  H        -0.1890017183       -0.7842728522       22.5798376041
  O        -4.1338161875       -6.9934811570       20.7794196457
  H        -3.8523746812       -6.1860890965       21.3259902402
  H        -5.0729306360       -6.9553958674       20.5706816582
  O         4.1388738205        2.9366058748       19.7296093312
  H         4.2291116774        2.5344709084       20.6430708857
  H         4.6338028624        3.7643096270       19.8131725182
  O         3.3507474106       -3.9855527929       21.2925918796
  H         2.4074530551       -3.7604493259       21.0658901744
  H         3.3851004221       -4.6205553209       21.9944990006
  O        11.2508805790       -7.9856322814        7.7956477905
  H        10.7543800624       -7.6587155616        8.5803520070
  H        12.1870312843       -7.8841679811        8.0671863294
  O        -0.4971659065       -4.5251758638        8.0884627020
  H        -0.2386640781       -4.6493414289        9.0435332683
  H        -0.7233641923       -5.4514929129        7.7365613265
  O         1.4383978126       -5.7549390504       15.3647527337
  H         1.7611811678       -6.5512520430       15.9997201882
  H         1.0605013355       -5.1879194091       16.1276409693
  N         7.6828856788       -3.9660404810       18.5356231271
  H         6.8877703198       -3.7123772900       19.1345361136
  H         7.6740461393       -4.9959443221       18.5181317294
  H         8.5777224174       -3.5922462847       18.8239822002
