     193
 CELL 12.4294 12.4294 12.4294 90.0 90.0 90.0 i =    88520, time =    44260.000, E =     -1096.5387731990
  O         7.1363715720       -1.1261669655       43.7581223458
  H         6.5667576972       -0.9204099713       43.0392269844
  H         6.6977138908       -0.5990672034       44.5404383231
  O         9.1213181809       -7.8101273346       41.6811012236
  H         9.9150814266       -8.3132696696       41.8089793310
  H         9.2133511183       -6.9580422473       42.1417901230
  O        11.0585565422       -2.3051714904       43.0065976766
  H        11.7574942252       -2.9065323053       42.6355723213
  H        10.9778714884       -2.6553578974       43.9129038734
  O         8.7352496647        0.8266972006       42.8846235198
  H         8.1930296508        0.0860558763       43.2218601380
  H         8.2002681766        1.6480816923       43.0898428805
  O        -2.9517430452       -5.6334713101       38.5508994658
  H        -2.6239885435       -5.0128172410       39.2029404403
  H        -3.0641907441       -5.1779224383       37.7115085631
  O        14.9304384397       -3.0767504166       50.6563081405
  H        15.5962857879       -2.5836578415       50.0998877847
  H        15.1178542793       -4.0706777477       50.5559496291
  O         6.0455773955       -1.0809500209       35.4823145536
  H         6.9266176533       -0.8682325316       35.8926879643
  H         6.0901472980       -2.0638987284       35.2368105064
  O        14.5464969835        3.9842604118       44.6545115918
  H        14.1790460219        4.8735229971       44.8698278975
  H        14.6577014324        3.9679647490       43.6149683697
  O         6.3390188242       -7.6328804480       32.8882303521
  H         5.8973468294       -6.7896441483       32.5796074395
  H         5.7019789569       -8.1842554188       33.4530864620
  O        11.2599406866       -3.1699144750       33.0663794311
  H        10.7002917070       -2.6817260834       33.7023367406
  H        11.0114150056       -4.1315127416       33.1519006997
  O        10.9493970165       -4.5908849094       36.5257359578
  H        11.6463395014       -5.2632519249       36.3977063740
  H        10.4419067941       -4.5346138709       35.7212238213
  O         2.9520699763        6.6358691550       38.0108022018
  H         3.9201589437        6.3774345038       37.7259694465
  H         2.3905676806        6.1216774862       37.3263928144
  O        -1.7275051824       -0.7524998795       46.8268613567
  H        -1.4190757174       -0.3882507262       46.0047150219
  H        -0.9951009531       -0.5916296396       47.5173372042
  O         8.2542339416       -2.4573262820       38.8615751991
  H         8.9290091699       -2.0458921033       38.2217322756
  H         7.7014336075       -1.6512590897       39.0231346931
  O         8.5184959297        3.6760565107       38.9695879798
  H         8.6593752383        4.2479537818       39.7617743181
  H         8.9121224078        4.0569286136       38.1598887654
  O        17.4636265742       -1.0017974146       41.6586605329
  H        17.3399734500       -0.1404008290       42.1629935827
  H        16.6199861755       -1.4477765245       41.4086460557
  O        15.9915771187       -4.7088113234       34.8527218135
  H        15.1630526387       -4.1582453706       35.0131081103
  H        16.0968454324       -5.3343721914       35.6089419802
  O        10.4508141465        3.7768449091       45.1935611487
  H        10.5091727829        3.2721953183       44.3349424014
  H         9.6604008917        3.3669891291       45.5881383458
  O         6.1492019551       -0.3209973146       39.3404852704
  H         6.0194771023        0.6538499739       39.3193025562
  H         5.7638245601       -0.6725053694       40.1946887401
  O        10.3688185862       -5.8856109291       45.4349235646
  H         9.6465805110       -5.5548608249       45.9763964754
  H        10.4152376655       -6.8868049940       45.3688023403
  O        14.2673020622        3.8235897830       29.5508806498
  H        14.5790992136        3.1308891516       28.9814632922
  H        14.4433549098        4.6726868205       29.0929079181
  O         5.3086099464        5.4495081388       41.8591901021
  H         5.7412990647        4.8711795645       41.2021230423
  H         4.5720402948        5.8673753737       41.3357514507
  O        14.6808294428        0.4025030762       43.7860936884
  H        14.1411738187        0.8878949354       44.4940660880
  H        14.9642634865       -0.4867487824       44.0747614491
  O         7.1181088114       -9.3580515839       30.7389654746
  H         7.5690831012       -8.7551131824       30.0139315014
  H         6.8365451256       -8.7582122366       31.4623103572
  O         4.5731177764        2.0169373634       39.9493831983
  H         5.0758218147        2.8573457534       39.8124161154
  H         4.5734224934        1.7261712564       40.9051309471
  O        13.3456013089       -4.2982500520       29.4712531688
  H        13.8692375537       -4.3761516442       30.2847505026
  H        13.7845349557       -3.5563332402       29.0593235189
  O        12.6853825707       -9.3189630356       48.0218025736
  H        12.9747326363       -9.8553174451       47.2870352817
  H        12.6623373820       -9.7780651913       48.8575093055
  O        13.8910004523       -2.5933133251       34.4252504570
  H        13.0837179015       -2.8767664040       33.9006140449
  H        13.5545264397       -1.8476645285       34.9735392329
  O         6.7865596916       -3.6927741232       36.8259453929
  H         7.0961985053       -3.8263917962       35.8708859036
  H         7.4909374420       -3.2882201192       37.3443935130
  O         4.4941625283      -11.1465935681       42.8133912547
  H         3.6813665083      -11.4854079391       43.2744669329
  H         5.1231567147      -10.4413480845       43.1997306790
  O         2.4065250026       -2.3037785255       40.7129578953
  H         1.6518635809       -1.6694722932       40.6726153335
  H         2.5924634291       -2.6401606906       39.8214520451
  O         3.1291426643       -1.8583536047       44.8935642077
  H         4.0419470322       -1.8015650864       45.3059445355
  H         2.5403077484       -2.0691902725       45.6492460570
  O        13.4140287923       -6.6480068232       36.0056292171
  H        13.4968177194       -6.5080720541       35.0164984439
  H        13.2244003887       -7.5576283036       36.0948091229
  O         6.0931292499        0.5658286744       33.3430054382
  H         6.0652913552        0.0358093983       34.2357081888
  H         5.4073323844        1.2485254935       33.2815323701
  O        16.6310742371       -1.0095395357       37.5193187628
  H        17.0635898466       -1.1845661279       36.6823596675
  H        17.3504083338       -0.6589647806       38.1423912413
  O        16.7425340394        2.8098023629       33.6402649071
  H        15.9295439698        3.0358410666       33.0955018241
  H        16.4390799574        2.9930244809       34.5761576170
  O        11.9669120915       -6.9705676409       38.9560695175
  H        12.1247419909       -6.6870236055       39.8802860225
  H        11.1050748135       -6.5870723044       38.7473812932
  O        12.7712590582       -0.6805445811       35.9881571847
  H        13.3128394631       -0.0165064579       36.4886755506
  H        12.3683497907       -1.1927557367       36.7752555737
  O        13.5108477386       -6.1476566408       45.5779296664
  H        13.8536878936       -5.3278994296       45.1505053985
  H        12.5215248735       -6.2000611157       45.4526545590
  O        18.1878951978       -6.1008999886       37.4382589095
  H        18.5062049544       -5.1479249210       37.2938714438
  H        18.4839320369       -6.5787427438       36.6678765226
  O        -1.9963747499       -0.0362122287       28.3578794838
  H        -2.6562789037        0.0551186179       29.0857746027
  H        -1.1142943578       -0.1891703427       28.7103973620
  O        13.4374308420        1.8055640058       45.7902453652
  H        13.7538614869        2.6562755136       45.4095522240
  H        12.5581011056        1.7625071160       45.4322835671
  O         9.6396118822        1.1161014516       50.7430739464
  H         9.9583302989        0.5730069449       51.5333992660
  H         9.1101385495        1.8510946561       51.2561290429
  O         9.4787886137        3.7837500907       35.9042123861
  H         9.1451899706        2.9181406311       35.4912528490
  H        10.4482904292        3.7654818054       35.7491101606
  O        16.0348371075        3.2199983863       36.1965116718
  H        15.9751154482        2.3939633417       36.7091497885
  H        15.0477373218        3.4149399273       36.3325865409
  O        21.1782688828       -0.9346330906       36.3836328347
  H        21.5144713867       -0.1517341928       36.8888920114
  H        21.7695830476       -1.1724643157       35.6538539095
  O        14.2248328443        2.0892556327       40.0142931950
  H        13.5364074038        2.4936393367       39.3945310359
  H        15.1464404555        2.1945205267       39.7182854792
  O        14.9485065856       -4.3744702581       44.0157880708
  H        15.7649418958       -4.9000683816       44.0236061734
  H        15.2887576409       -3.4552725091       44.1482362662
  O         6.0003062088        4.2074304800       39.2304519862
  H         6.8869956999        3.9743943926       38.8346989274
  H         5.5885269607        4.8503056127       38.5748198807
  O         0.5535641684        0.0582365565       41.6199944700
  H         1.1091821376        0.6805384182       41.0998640169
  H         1.0166468109        0.1101192529       42.4722883827
  O        17.7146049359       -3.0918577223       33.7203713501
  H        17.1960984505       -3.9041728049       34.0034462603
  H        18.3858488436       -3.3195306427       33.1208665670
  O         9.9334885234       -3.5519402303       40.7228873964
  H         9.4107279477       -3.0569684998       40.0284517024
  H        10.0869188925       -3.0103331273       41.4903906544
  O         2.1052827170        0.6599873479       37.3883382291
  H         2.0506599382        1.1601066147       38.2192128741
  H         2.8508749849       -0.0088541461       37.5332266432
  O         8.7273195477        1.8308135451       46.5975162328
  H         9.2036601181        0.9908425588       46.6751209985
  H         7.8792045719        1.4979012374       46.1655284941
  O        12.0660131385        2.6925470166       38.5268274352
  H        11.1614378597        2.2297441226       38.5379883229
  H        11.9667045377        3.6740872431       38.8522674481
  O         8.4776976912       -4.5404857416       47.0746378819
  H         7.9993097908       -4.0990362174       46.3512498513
  H         8.0298921388       -5.4131440206       47.3407440842
  O         5.1239957541       -5.4336627250       44.0743731901
  H         5.8560527569       -4.8636201477       43.9013376601
  H         5.1910436094       -6.0812871634       43.3385366100
  O         2.6840401135       -6.0931396659       40.7124607252
  H         2.2271277923       -5.2698128891       41.0389535295
  H         2.5892340172       -6.0631523694       39.6906326561
  O        11.2954884336        3.1021557767       42.0492872794
  H        11.2805074701        2.1802500136       41.6353995981
  H        12.2383275843        3.4493201039       42.0132024989
  O        11.4119261475        0.2009986229       44.1097560385
  H        11.6206721466       -0.6950185116       43.7115936101
  H        10.5487423726        0.5089512599       43.6968505108
  O        21.3878684295       -5.3053087789       30.3508250164
  H        21.6222577055       -4.6858350379       29.6083723087
  H        22.1278479827       -5.2232598274       31.0244041858
  O         7.4943408560       -3.7376482319       32.1640961835
  H         7.9631315076       -4.2942598256       31.4845520579
  H         7.5577156104       -2.7940641719       31.8639271626
  O         7.4349814720       -6.7693633146       35.2377544585
  H         8.2367829675       -7.2426137546       35.6154844809
  H         7.2203585013       -7.2180318871       34.3800275398
  N        11.7297686158       -2.1694668186       37.9857199944
  H        12.6597646575       -2.7389243392       38.0234534087
  H        11.7623771894       -1.8538142557       38.9733045718
  H        10.9076927183       -2.8851688349       37.9614652848
