     193
 CELL 12.4294 12.4294 12.4294 90.0 90.0 90.0 i =    36120, time =    18060.000, E =     -1096.5359203998
  O        -2.4153671897        0.5078429972       16.3679142808
  H        -2.1264739038        0.0084861568       15.4947817640
  H        -3.2007054610        1.0784023138       16.1802961457
  O         0.4781708064       -8.2387517537       11.5727676247
  H         1.0169620362       -9.1616516495       11.6948417285
  H         0.5306676673       -7.7296662310       12.4169745824
  O         0.4883315665       -6.8123623163       13.7949825129
  H         0.6892912389       -7.3426465145       14.5875663200
  H        -0.4289246918       -6.4017628106       13.8639217634
  O        -1.1137475242       -0.0192291527       13.7576648392
  H        -0.1497651086        0.1641777486       14.0246700314
  H        -1.0111733822       -0.8894744739       13.3307439078
  O       -11.0496431063       -3.8588448524        9.8663882642
  H       -12.0467607633       -3.7324117633       10.0075901104
  H       -10.9920731960       -3.4117482996        8.9537965835
  O         4.1686197451       -5.2197784280       18.4114648801
  H         4.0353451677       -5.1990195920       17.3882458391
  H         3.6913446789       -6.0670157428       18.6881794503
  O        -2.6520148427       -1.0150080389        6.2142086003
  H        -3.1166259938       -0.4322661184        6.9312444142
  H        -2.5522822594       -0.4132893219        5.4045258023
  O         4.2812153515        4.2991906163       15.0592573861
  H         3.3676844933        4.5129961166       15.4124022246
  H         3.9725780632        3.9269711724       14.2259145130
  O        -3.0584731885       -7.6214536482        2.8333518445
  H        -2.2910059691       -8.0448916386        3.2405416496
  H        -3.7182643955       -7.4453393576        3.5402146876
  O         0.0589598186       -1.4800585949        6.3769632944
  H        -0.7157208391       -1.0272084574        6.6814787157
  H        -0.1638580373       -1.8715484655        5.4582645891
  O         1.0964356106       -5.4936569802        5.2422611347
  H         1.8226376377       -5.0776691146        5.8216687421
  H         0.4800863379       -5.7872229431        6.0147768096
  O        -9.4862676092        4.8636648144        7.0168024014
  H        -8.6216765813        4.3517280537        7.0634987996
  H        -9.7688490196        5.0463991476        7.9188140451
  O       -10.6825517027       -1.7328616265       14.4715902846
  H       -10.2162531177       -0.9416041899       14.7985517142
  H       -10.4445499102       -1.9128521734       13.5330151777
  O        -1.9007480227       -3.6564660123        7.8406626353
  H        -1.4885566026       -2.9105152509        7.3979737556
  H        -2.8548005437       -3.5378924348        7.8750025346
  O        -1.3031953668        1.8564302929        8.8326550971
  H        -1.8410925350        2.4238763978        9.4733013572
  H        -1.3555781529        2.4162566056        7.9631572663
  O         8.3897243931       -0.0266648558       11.3442635451
  H         8.7799056657        0.0931378228       10.4436973003
  H         8.8611319740       -0.8784610403       11.7570296997
  O         4.6239297171       -4.3797482531        3.3094133976
  H         5.0952556627       -4.8296224367        2.5817836084
  H         3.8961168079       -3.7432974253        3.0063306021
  O         1.2396850376        1.7311952897       14.2982569645
  H         1.8337101510        1.5161646478       14.9979672536
  H         0.5795880281        2.3782023910       14.6721949564
  O         0.5373916948       -0.2690830086        9.1551688755
  H        -0.0665892622        0.4926782663        9.0203200985
  H         1.2030386120       -0.0597099486        9.8343715475
  O        -1.9480490294       -5.7064324763       13.8659035749
  H        -2.3226353401       -4.8737522636       14.1219961207
  H        -2.2613838528       -6.4341827878       14.5123275759
  O         4.0215835898        3.7290823265        0.0435589732
  H         4.8761157103        3.2644835900       -0.2048197800
  H         4.0185610994        4.6796391101       -0.3194407652
  O        -3.0364581311        2.1378675852       13.0067942685
  H        -3.5260738105        1.4679730306       12.3834320078
  H        -2.4300615742        1.4475767045       13.4295851358
  O         5.4966138908       -0.2776514131       15.0635372023
  H         6.1788989270        0.4028063158       15.3178802815
  H         5.6395775623       -0.9499903742       15.7670699084
  O        -4.2445188009       -7.6369064155        5.3506066895
  H        -4.6112826294       -6.8571492682        5.9448428058
  H        -3.6933436819       -8.2280116777        5.9257456469
  O        -4.9154236783        2.5412952530        8.8842679611
  H        -5.4211829037        2.8306041468        8.0307657579
  H        -5.5414404422        2.4527729147        9.6580643720
  O         5.5999678541       -6.1911681294        1.5008481031
  H         4.9397193580       -6.7808769891        1.9157208857
  H         5.2464025162       -5.8656631992        0.6510173183
  O         2.7787307723      -11.9205643035       16.0682560196
  H         2.5589274337      -11.9654136751       17.1176096439
  H         3.7488776851      -12.0061338378       16.0225758826
  O         1.8347840318       -3.4728499155        7.1402374595
  H         1.2087725797       -2.7649444253        6.8802030391
  H         2.6746859388       -2.9396261651        7.1622930491
  O        -5.2281174871       -5.9192981277        9.6430111444
  H        -5.1620559595       -5.2350587720       10.3508504983
  H        -4.3609041514       -6.3769601007        9.5748469989
  O        -4.7559832694      -10.7205685867       15.4966095228
  H        -5.1866514891      -10.0169376401       16.0951661609
  H        -4.4702821240      -10.2895872745       14.6317042747
  O        -5.1818149690       -3.5538049931       11.3042435165
  H        -4.5299926860       -3.2980610117       11.9350001526
  H        -5.9734920439       -3.8177679002       11.7932515766
  O        -6.7713934370       -2.0626565274       17.2487920787
  H        -6.9737940614       -2.9067595504       16.8185171342
  H        -5.9117436350       -2.2416752519       17.6918347388
  O         1.0092161016       -9.2442106523        5.8002511840
  H         1.7985590110       -8.8308523043        6.2732022967
  H         1.1934920513      -10.2418793271        5.7673230430
  O        -3.5374917950        0.3775468511        8.6941396467
  H        -4.1933304790        1.1425956188        8.8108823941
  H        -2.6366432931        0.8760795337        8.7226854412
  O         6.9736238938       -5.5174040432        6.8304109622
  H         5.9739801880       -5.2339143443        6.4936067366
  H         7.0110806620       -5.5491110677        7.7880075583
  O         5.7239762440        3.2978849545        4.6660740092
  H         5.1761530935        3.5969536237        3.9320619767
  H         6.4020054603        3.9897262229        4.8785910131
  O         2.1788334032       -4.6412952995       13.4071160962
  H         1.4485293345       -5.2622015763       13.6225455369
  H         1.7223897741       -3.7851778806       13.3561464569
  O         4.1313763613       -1.7123849189        7.2498804676
  H         4.6777607794       -1.9262278362        6.4252117941
  H         4.5646383336       -2.3293024341        8.0348785235
  O         0.2336942139       -3.1169690328       16.5066789101
  H         0.8655568819       -2.7446516963       15.7852770821
  H         0.6087253159       -3.9686868923       16.8384442184
  O         4.8287259342       -7.1265464173        9.3763970558
  H         5.7833758702       -6.8403145237        9.5890284261
  H         5.0560586736       -7.8002742443        8.7451140029
  O        -7.4254612956       -3.5206497339        0.4113059846
  H        -8.3195958968       -3.4355383698        0.0350366773
  H        -6.9186543691       -2.7275679375        0.1205575609
  O         1.8154623635        4.7645363754       16.0405670091
  H         1.6691681409        5.6457959252       16.5229314747
  H         1.5684535550        4.1130527950       16.7871721180
  O         1.8837266289        0.5616523127       18.6319585905
  H         1.2557887241       -0.1704871000       18.8060355061
  H         2.4849446956        0.6609461942       19.4255589787
  O        -3.0317192001        5.1774938245        9.2453243493
  H        -2.3826042217        5.8516489723        8.9300490753
  H        -2.6012410972        4.6151919593        9.9228829547
  O         4.9837454775        3.1928085768        7.2110891632
  H         4.7183216320        2.3190980004        7.5751047631
  H         5.1268527314        3.0812603948        6.2100569076
  O        10.1531556473        3.9826506819        6.8247357942
  H         9.6984087090        4.1128392515        7.7366061456
  H        10.5842338570        4.8260729798        6.8181585033
  O         3.9018170327        0.8098890164        8.0345804682
  H         4.2371488800       -0.0869167488        7.7389574697
  H         3.6513908997        0.6299307503        8.9865216505
  O         5.7433501496       -0.5349484664       12.1245382264
  H         5.6506062467       -0.3713321216       13.1002360156
  H         6.6663184637       -0.6760349473       11.7371980770
  O        -1.7884692905        3.2576716837       10.8644534656
  H        -0.9599132566        3.6634964733       11.1633683606
  H        -2.3494568587        3.0099927359       11.6534947620
  O        -9.0175167606        0.0510982319       10.6224187741
  H        -8.0704145965       -0.1793116473       11.0614674260
  H        -9.3834658762        0.8496812756       11.1231114359
  O         8.3215203745       -3.1342056675        5.5307448911
  H         8.2018748859       -3.9271460574        6.0515998705
  H         9.0140829581       -2.5496702955        5.9539178950
  O        -1.0603753593       -2.4215785101       10.2232418802
  H        -0.7072058385       -1.5328484126        9.9051842029
  H        -1.7424993463       -2.6404882988        9.5465475409
  O        -4.0657885007       -2.4180642187        8.9249234306
  H        -4.0691567861       -1.4179504641        8.9484550948
  H        -4.5194939558       -2.7919825919        9.6734985201
  O        -0.8552299217        2.8895623196       15.9510556484
  H        -0.7166266502        2.9285552831       16.9037385845
  H        -1.4418882580        2.0991467814       16.0176647437
  O         1.2067626799        5.7256216895        9.3242009435
  H         1.3534935333        6.6839504131        9.5684243773
  H         1.0706123290        5.1105876515       10.0844226515
  O        -2.4743990613       -3.2998017132       15.2237069251
  H        -1.6122464792       -3.2539206783       15.7311693250
  H        -3.1251370238       -3.2495577532       15.8950015358
  O        -3.0617318338       -2.2598480606       12.6197953862
  H        -2.3380503571       -2.4449554118       12.0259038848
  H        -2.7143773693       -2.2385718510       13.5406385453
  O        -8.6657920708       -6.0546381710       11.6646102746
  H        -9.4634932613       -5.5567723030       11.9026072290
  H        -8.6628315357       -6.3583473516       10.6938576538
  O         2.2840306804        2.0953908117       11.8788044736
  H         2.0587821859        1.9169572769       12.8861998843
  H         2.9386164222        2.8447597469       11.8749351930
  O         2.3476753171       -2.1448365888       11.7904070409
  H         2.6457589903       -1.3395473888       11.2877744458
  H         1.9919754745       -2.8260019154       11.2174304040
  O         6.2462101049      -10.0512265991       -0.6405180451
  H         6.7963013143       -9.4499098045       -0.0638296101
  H         6.1559442787      -10.9763657926       -0.2223233089
  O        -5.2287337472       -8.0669513929        0.6947854463
  H        -5.6139306967       -7.2864188142        1.1495560877
  H        -4.2803420175       -8.1271377886        0.9801362472
  O        -0.6919868250       -6.0746675755        7.4654771084
  H        -0.0084134766       -6.3930110540        8.1866943782
  H        -1.0483372331       -5.1263124858        7.6202705162
  N         4.7587234315       -3.5029819753        9.2483218405
  H         4.6195971860       -3.2032642267       10.2068811294
  H         3.9323069162       -4.0397626459        9.0484893645
  H         5.5754733501       -4.1554173361        9.2640188343
