     193
 CELL 12.4294 12.4294 12.4294 90.0 90.0 90.0 i =    81720, time =    40860.000, E =     -1096.5537869337
  O         6.5489524232       -1.3151288644       40.0271200351
  H         5.9694286450       -1.1294740844       39.2623357393
  H         6.1183742008       -1.0421880996       40.8703168655
  O         6.4762405285       -7.3614912444       37.8873565713
  H         7.2574077443       -7.9553582831       37.8275433569
  H         6.8380487504       -6.5666688945       38.3668866223
  O        11.4629959237       -3.2403152001       39.1495305688
  H        12.3167603423       -3.7093176306       38.8924848448
  H        11.1590526922       -2.6423643034       38.3782303809
  O         8.8338489259        0.0656452668       39.2060941954
  H         7.9696858836       -0.3520112659       39.3097936887
  H         8.8278069134        0.8444645498       38.6179467546
  O        -3.5193208092       -6.0706959203       35.7757347932
  H        -3.1942509453       -5.1589948654       35.9554442189
  H        -3.0840679009       -6.1921886818       34.8257600544
  O        15.9165289685       -4.2171662543       46.8671177848
  H        15.3504596118       -4.2064584644       46.0678761648
  H        16.7612110329       -4.6137613685       46.5938891838
  O         5.9764191862       -0.8040727073       30.1124642565
  H         5.1494228429       -0.3315741023       30.4187528935
  H         6.6518667072       -0.8447089818       30.8085142663
  O        13.5256701810        3.4828063763       41.1477605166
  H        13.3029095319        4.4640090718       41.3183586730
  H        13.6096423280        3.5443435475       40.0769964520
  O         4.7165945497       -8.0186476503       31.0640409720
  H         4.8081202746       -7.2189569225       30.4545036691
  H         3.8007511635       -8.4332681861       31.0010309724
  O         9.5451814031       -2.6510499497       30.9174895782
  H         9.6793662990       -2.4603924129       29.9478379567
  H         9.1679273315       -3.5985843634       30.8089767770
  O         9.8914747481       -5.6448373079       33.2448031093
  H        10.7682823488       -5.8407869971       32.7967387617
  H         9.1392812796       -5.9333790828       32.6693784925
  O         1.4101711336        5.3264016083       34.4588578278
  H         2.4202226831        5.4792356875       34.2895073855
  H         1.1500009642        4.3822083932       34.2053614551
  O        -1.9180603816        1.0106226497       43.0606508636
  H        -1.7911487037        1.4089292513       42.1798365407
  H        -1.5016533990        0.1082800588       43.0383014738
  O         7.4048347373       -2.5847111173       34.4647222761
  H         7.7016173896       -2.2524418790       33.5610251825
  H         6.7472585685       -1.8856901508       34.7732890006
  O         6.8209796381        1.9029869457       35.1569577058
  H         6.0789804334        2.4625059263       35.4361516032
  H         6.9736225085        2.3716007867       34.3232966453
  O        17.3533939834       -0.7488220184       37.5892098234
  H        16.7303470290       -0.2450149785       38.1194418007
  H        16.8440687891       -1.5716642204       37.2966490276
  O        13.7589831390       -4.4879243630       32.2328489023
  H        13.1612010317       -3.7430338753       32.1077624531
  H        13.2082273755       -5.1784429633       32.6796476530
  O         8.5547658195        3.5327781883       40.4976091355
  H         7.9618687393        2.9736602754       40.0491956852
  H         8.3451400301        3.2500439452       41.4333210228
  O         5.9169144873       -0.4913145944       35.1462284286
  H         6.3771017878        0.3939961782       35.0747573568
  H         5.5705682509       -0.5299394606       36.0752151082
  O         9.8478973584       -6.0826461864       40.5038604128
  H         9.3971480784       -5.6573788296       41.3347187872
  H         9.5702818662       -7.0070610611       40.4316127420
  O        14.3879984422        4.1142647397       26.2010664525
  H        14.5849671790        3.2752593517       25.6560732468
  H        13.7653199600        4.5841883498       25.5639776765
  O         4.3658925171        4.9109655504       39.7033741522
  H         4.9202028581        4.8531596246       38.8776235679
  H         3.4608096249        4.7196655980       39.3688863284
  O        13.4650309740        0.1130051142       40.1403800645
  H        12.8343076435        0.8886868984       40.0730174004
  H        13.4819799427       -0.3188642205       41.0210574819
  O         5.4063363787       -9.9627745869       28.3483705235
  H         5.2675647791       -9.2742646902       27.6603854599
  H         5.1133345288       -9.4888509521       29.1543048275
  O         3.2478122523        1.9338293890       36.9906630672
  H         3.9956944649        2.5036545079       36.6381739398
  H         3.4975064697        1.5089220828       37.8809801148
  O        13.8265490661       -4.6132292507       26.0183959284
  H        14.2036150156       -4.4936254765       26.9137347424
  H        14.4696995375       -3.9913353669       25.5078906834
  O        11.6473052961       -9.5006042658       44.5165790464
  H        11.3083659112      -10.3009310097       44.0324936672
  H        10.8586047196       -9.4192136700       45.1463557299
  O        11.6670787010       -1.4335188991       31.7804813376
  H        10.8572702283       -1.9862392560       31.5443822751
  H        11.8221593379       -1.5067965871       32.7262937637
  O         6.4917242646       -5.3371791465       34.2814926329
  H         6.9950898146       -5.7199837512       35.0087239981
  H         6.6815773403       -4.3592858042       34.3792797159
  O         3.5158277897      -11.5977728660       39.3989391869
  H         2.5398042088      -11.7293980969       39.7224153102
  H         3.9231258175      -10.9191778985       40.0250323869
  O         2.9088797981       -2.6416933546       36.7676305384
  H         2.2916158309       -2.0182035126       36.3319301319
  H         3.1696810533       -3.2767547841       36.0587622905
  O         1.4629242579       -1.3830519448       42.2945077229
  H         2.2730910835       -0.9858233047       42.7535166417
  H         0.8092085038       -1.4120129468       43.0148390322
  O        12.1408114734       -6.8270506728       31.8177401883
  H        12.1112491617       -6.4424102506       30.9180933456
  H        11.8228262978       -7.7261488143       31.8054193933
  O         3.4115608193        0.2629977691       30.8606713907
  H         3.4065603569       -0.1524473562       31.7428458876
  H         3.0331815388        1.2155244913       30.9351321143
  O        16.2517483984       -1.0126987880       33.2699271916
  H        16.3158808645       -1.9683387355       33.0748534934
  H        17.0644745587       -0.8715431833       33.8420931596
  O        14.7406784625        2.9233058911       31.0820119934
  H        14.1186733206        3.1329336875       30.3303751557
  H        14.3035465213        3.1119513483       31.9319970773
  O        10.5217662542       -8.2835094715       36.7008903173
  H        11.3695434279       -7.7226316055       36.8964508871
  H         9.8714696438       -7.4991145085       36.5982816331
  O        12.1472527756       -1.1436764654       34.4827663686
  H        12.8276315877       -0.4911118629       34.8066426060
  H        12.1544838388       -2.0525975117       34.9772706546
  O        12.5296081271       -6.2320646135       41.7393316679
  H        13.1494218519       -5.4721344343       41.7398776750
  H        11.8743345003       -5.9592794907       41.0468892779
  O        16.6852751619       -7.0344916938       33.4925206242
  H        17.5150753535       -6.5058224428       33.5375802008
  H        16.7581779094       -7.4486296966       32.5655546537
  O        -2.1430971995       -1.1603358556       24.7181443114
  H        -2.5856461625       -0.7212986635       25.5138508828
  H        -1.1913685021       -0.9801678537       24.6800388451
  O        10.9326112310        2.0894061625       40.5443970663
  H        11.6109137043        2.6952175051       40.6859944997
  H        10.1554950200        2.6304883509       40.2103732173
  O         9.6938622707       -0.0089754325       46.7451981360
  H        10.6241151616       -0.2887478651       46.8702684977
  H         9.2726469447       -0.3799110344       47.5377799983
  O         7.5532961086        3.3351633286       32.9814616324
  H         7.5824622251        2.7199958867       32.2393282406
  H         8.4806504806        3.3092169882       33.3573464320
  O        13.5451937344        2.6060149138       33.8550883030
  H        14.0303526471        1.7490388070       34.0220952319
  H        12.7696885064        2.4991074061       33.2135725244
  O        20.3289619168       -1.2243033121       32.0759814533
  H        20.9244367371       -0.6395118695       32.5059724848
  H        20.9528834373       -1.6843447891       31.5195252824
  O        12.8183084704        2.1133257173       37.2403986033
  H        11.9986407759        2.1747680705       37.7471814512
  H        12.6441986458        2.3921525794       36.2936444070
  O        14.1779258279       -3.9753210629       41.1927502632
  H        15.1286441863       -4.3810419917       41.2531718077
  H        14.2569713000       -3.0556233626       41.4624650720
  O         5.0113695786        3.8051310893       35.6771959980
  H         5.5284098018        4.4369884315       36.2041160026
  H         4.7157155069        4.2203312921       34.7947432044
  O         0.5735821632       -0.8025100420       37.5015154792
  H         0.8590220677        0.0961318647       37.6511810243
  H         0.7222938830       -1.2415280363       38.3839098620
  O        16.8999818410       -3.0887040033       31.5046647107
  H        16.4556115192       -3.8269483378       31.0158687087
  H        17.2483801756       -2.4497641674       30.8247650209
  O         8.5791781364       -3.5365813046       36.7187652569
  H         8.1308967539       -3.1526393617       35.8741358906
  H         9.2342533392       -2.8599528871       36.9369067781
  O         2.2860883015        0.0151804577       35.2509974671
  H         2.8200634816        0.6934958301       35.7388360548
  H         2.8624527806       -0.3260475416       34.5249517361
  O         8.0670557068        1.9685283693       42.8776296543
  H         8.8818161844        1.3999373532       42.8302899210
  H         7.4110913513        1.3286627924       42.4189270606
  O        10.0083402285        2.9857995372       34.2074591088
  H        10.0500384855        2.0095167569       34.4385209857
  H        10.3543336591        3.5667116371       35.0207210229
  O         8.3073597443       -4.9014152331       42.6301569811
  H         7.5297718272       -4.4913274163       42.1065323716
  H         7.9099319253       -5.6740530105       43.1317330135
  O         4.3108734287       -5.3526381352       41.6225849711
  H         5.1396962492       -4.8673870732       41.2491417841
  H         4.2119835650       -6.0962784919       41.0208052243
  O         0.4922501976       -6.7596005061       36.9671683874
  H         0.7457175631       -5.9428216220       37.4397115333
  H         0.9607126767       -6.7719716860       36.0653523352
  O         8.4419623692        2.4622618899       37.7113211309
  H         8.0345680822        2.1821661482       36.7932987129
  H         9.2608609208        2.9355757293       37.5980432852
  O        10.6803460779       -1.5338038602       41.1566096482
  H        10.9682047317       -2.3484427572       40.6863907059
  H        10.1912474450       -0.9306536459       40.5371670843
  O        20.0771797418       -4.9854703803       26.2433110544
  H        20.3087776158       -4.3845249932       25.4952797399
  H        20.9730616719       -5.2838315011       26.6121447845
  O         6.3277897961       -3.8607086756       28.4308509175
  H         6.6304369246       -4.1766094616       27.5353421325
  H         6.1276785477       -2.9541621453       28.1326905053
  O         7.5821883373       -6.5944217661       31.9602365466
  H         7.3675177917       -7.4815626125       32.1770447066
  H         7.2357388049       -6.0464711370       32.6972053056
  N        12.1731102124       -3.7805396180       35.3629777107
  H        11.6125978599       -4.5106532025       34.9117516359
  H        13.1665441726       -3.9622384494       35.1963299320
  H        12.0066014643       -3.8468441293       36.3544887974
