     193
 CELL 12.4294 12.4294 12.4294 90.0 90.0 90.0 i =    57320, time =    28660.000, E =     -1096.5196338669
  O         0.8679715534       -1.7699108540       27.4766191854
  H         1.8441638994       -1.5341751290       27.4615777459
  H         0.4342597578       -0.9635209492       27.7177711117
  O         3.5468909104       -9.7847903521       23.5446077063
  H         4.4501464955      -10.0894756896       23.2454664956
  H         3.6488874639       -8.9198671777       23.8802573027
  O         6.3640420008       -5.8185547693       25.1395725415
  H         6.7515455188       -6.2345638222       25.8945861275
  H         5.3892867008       -6.1828544977       25.1442036317
  O         3.5076662572       -0.7313544371       27.4608796205
  H         3.5487569780       -0.1145279169       28.3389067847
  H         3.3787472587       -0.1001893429       26.7221178269
  O        -7.6633687833       -5.6358826999       21.5587674974
  H        -8.0026933877       -4.9026449698       22.1285898470
  H        -7.3624748685       -5.1938678155       20.6522162896
  O         9.0443373862       -7.2507085105       30.5199901710
  H         8.8044288194       -6.5024989988       29.9680151636
  H         8.9536335711       -7.0100232680       31.4477924686
  O         1.0361183369       -2.8478136831       17.6751882396
  H         0.4760168995       -2.2015917505       18.1285270244
  H         1.1386362459       -2.4113467926       16.7815785333
  O         9.9363044394        4.5557923520       27.4950619501
  H         9.1175933175        5.0755153441       27.4753130910
  H         9.9685307971        4.1165688540       26.5934171497
  O        -0.8811188042       -5.7396952345       15.1782081427
  H        -0.9560874694       -5.5409513337       16.1370576209
  H        -1.1883784487       -6.6777108441       15.1789673487
  O         3.9973809448       -2.6614314109       17.7662527620
  H         3.1105016425       -2.5412081198       18.1138423092
  H         3.9276811544       -3.1873164164       16.9163983785
  O         5.1644900949       -6.2285991868       16.8437121665
  H         5.6091159749       -5.6241420642       17.4659380005
  H         4.8038503279       -7.0798472771       17.3383838077
  O        -3.2154093909        5.3105721094       21.2632406746
  H        -2.9001410025        4.3637889303       21.3948332859
  H        -4.1106239547        5.4684714978       21.6543326800
  O        -6.0830735654       -1.3675908407       27.3050423995
  H        -6.9702050885       -1.0364985996       27.5307054022
  H        -6.2072670360       -2.1022953713       26.6605469989
  O         1.6004534222       -3.5002744561       21.1191825540
  H         2.1428444308       -2.9427832595       20.4947524258
  H         0.7194016984       -3.1432185842       20.8937170481
  O         1.5875061537        0.2311882648       19.4540490299
  H         1.6367470332        1.2015886831       19.8177743966
  H         2.1465558363        0.3091578327       18.6655713514
  O        14.6131222170        1.3124038425       25.5473774768
  H        15.2274007998        1.6942008450       24.8721576471
  H        14.1520394867        0.6268994317       25.0940241713
  O         7.8994779712       -4.0820501807       15.6843122933
  H         8.3942619943       -4.0649150642       14.8386825400
  H         7.2235693633       -3.4321455651       15.5190835716
  O         5.9355610800        2.8520145744       26.3022711084
  H         6.6205974866        2.3218527054       26.6896577164
  H         5.1269173804        2.4834023294       26.7023681321
  O         3.5475847074       -1.6613043904       20.6429731803
  H         2.8443579104       -0.9915056312       20.3838474278
  H         4.1098586640       -1.6251325873       19.8955213447
  O         3.8961085466       -7.1062457596       24.8483714513
  H         3.2631752764       -6.4740303425       24.3509484336
  H         3.3123094081       -7.4695772430       25.5849064403
  O         9.6182059100        3.2143902831       12.4505379927
  H        10.2165986388        2.5653280715       11.9869350257
  H         9.8817954576        4.1128471566       12.1190003365
  O         1.9030638444        4.0059343673       26.1926532901
  H         1.6887320068        3.0431473318       26.1783998014
  H         1.4622764573        4.4431956225       26.9820610338
  O         9.7834162669       -0.3261426530       28.4602025199
  H        10.5194593893       -0.4756514753       27.8574644785
  H         9.6502528771       -1.1985191317       28.7962853290
  O         1.4391655876       -8.1468662812       16.5146831950
  H         1.7294666915       -7.3787669255       17.1552522927
  H         0.6096707132       -8.6502240212       16.9317942264
  O         0.5756604707       -0.3331621056       22.8963716471
  H         0.7863347135        0.4336567099       22.3289166708
  H         0.0450346705       -1.0192126728       22.5385865741
  O         9.6826411190       -4.4699101243       13.6954983459
  H        10.4463474369       -4.7745425724       14.2928457820
  H         9.8831283502       -3.9085014188       12.9339666724
  O         7.5196298271      -11.1566377600       28.2161616286
  H         7.2330648826      -12.0650799518       28.4875302426
  H         8.5050288789      -11.2565209311       28.0831543328
  O         5.5252363444       -4.6258399826       19.1253984310
  H         4.8730121382       -4.0422066274       18.5958569866
  H         6.2682529596       -3.9845903243       19.2694026039
  O         0.4540491261       -7.4518301838       21.0152363032
  H         0.3248640410       -7.5086651018       22.0148862898
  H         0.0860428788       -6.5684656052       20.7746799273
  O         0.1826094150      -11.4834609461       27.5723276051
  H        -0.3035080197      -10.8700326295       28.2040372439
  H         1.0920189492      -11.1763731409       27.3860225481
  O        -2.6031325516       -2.4203045494       23.9379721326
  H        -3.1335153451       -1.8193597452       24.5093991972
  H        -1.7042791143       -2.6398785757       24.3307009133
  O        -2.9212746492       -2.8740693832       29.9963182110
  H        -3.4064360898       -3.3084803011       29.3243572167
  H        -2.0951763967       -3.4032536689       30.0610339306
  O         7.3375448102       -9.3956199576       17.9191822475
  H         7.9454958181       -8.6273282930       17.7857145441
  H         7.3361399930      -10.0345227134       17.1424373523
  O        -1.0411101009       -1.0394181361       19.1649775218
  H        -1.7899620070       -0.7634966145       18.6071761604
  H        -0.3615143601       -0.3255082408       19.2358170324
  O        10.9240391664       -5.0697952056       20.3485433316
  H        10.2829170998       -5.6901673910       20.6320024625
  H        10.7305121035       -4.2211945149       20.7242546069
  O        11.3182858070        2.6822923121       17.0167352005
  H        10.6486516773        3.2668261349       16.5641427175
  H        10.8189036263        2.4374936250       17.8206552074
  O         6.7509837524       -7.0670254674       22.6906499540
  H         6.7828020682       -6.6632192644       23.6044507453
  H         6.0474391694       -6.5754509192       22.2282449902
  O         7.4162315521       -2.6477999645       19.5937458297
  H         8.2230504588       -2.8712006107       19.0165638036
  H         7.5250367351       -3.0778774945       20.5758216519
  O         4.1592935262       -4.0287076882       27.8263439173
  H         4.7600352472       -3.7644759320       27.1293993480
  H         4.4972409310       -4.9488881955       28.1526980074
  O        10.7151490064       -9.3978109025       21.2730067020
  H        11.2688335963       -8.6208432875       21.0001649944
  H        10.2449291725       -9.8756128299       20.4959662502
  O        -4.1812728795       -0.7296906081       12.9362538567
  H        -4.6734954986       -0.8061954622       13.7901255560
  H        -3.5069310732       -0.0671373970       13.0028916524
  O         7.1474863884        5.1045213513       27.3602640528
  H         6.5930726083        5.5595747349       28.0366181684
  H         6.6564597826        4.3016713219       27.0498204501
  O         6.0381243732       -0.4731810992       30.3760810620
  H         5.4472833412       -1.2665137675       30.2686776948
  H         6.4795141215       -0.5403827182       31.2117796925
  O         4.6701544379        3.8418364632       18.1104111619
  H         5.6085443371        3.4827789721       18.2243983659
  H         4.2666351638        3.9234233336       19.0157751328
  O         9.6564818369        1.8366928169       18.9017424016
  H         9.3028165696        0.9114746572       19.0396145782
  H         8.8382478076        2.2826508542       18.6223245898
  O        15.9419521454        0.6391972402       17.4709061975
  H        15.9483739007        1.5584067314       17.0732914042
  H        16.8853866061        0.4161942494       17.8050822158
  O         8.2520447214       -0.2348665306       20.1507532211
  H         8.0138503809       -1.1627311588       19.8247676628
  H         7.9254356305       -0.2028722347       21.1209527780
  O        11.0859133801        0.8768851252       25.0470666504
  H        11.7187324979        1.1324451011       25.7204220689
  H        11.5959241681        0.5849951422       24.2525410714
  O         1.5516864905        2.0319629435       21.7168235283
  H         2.1813614128        2.5927567513       22.2572775688
  H         0.7386238330        2.4677750464       21.8223043501
  O        -5.0725800427        0.0484499268       22.6749605464
  H        -4.5899786358       -0.2169454910       23.4894609194
  H        -5.3413303657        1.0081698132       22.8059087856
  O        11.6198377639       -4.8547102947       17.6374484127
  H        11.4827114018       -5.0716107334       18.6293298683
  H        12.3574413220       -4.1811983097       17.5300348279
  O         4.0196121269       -3.1206737455       23.0864127688
  H         3.8217128169       -2.5764789617       22.2617453466
  H         3.2060923384       -3.6473179885       23.2287176315
  O        -1.4581454724       -2.5305818820       21.4587396200
  H        -1.6323388403       -1.9551195373       20.6675561722
  H        -2.0327064336       -2.2511489029       22.2141304976
  O         3.5923978341        2.8184499696       28.3515130055
  H         4.0688449806        3.4004505937       29.0055003605
  H         2.7598719104        3.3916715732       28.2344572168
  O         3.2587656098        4.5738735843       20.5295938956
  H         3.6333491193        5.0996743357       21.3212432780
  H         2.3432727570        4.4073661577       20.8070365775
  O         1.7670391374       -5.5641955759       26.7111077303
  H         2.4139006678       -5.0354573175       27.2967734301
  H         0.8383285806       -5.4587478066       27.0744046072
  O        -0.0762153942       -2.8966171985       24.9608332389
  H         0.6436019581       -3.2128653105       24.4176791992
  H         0.2225602189       -2.6384580451       25.8691567904
  O        -2.1225403050       -6.7435419543       24.1010098484
  H        -2.4170930033       -6.0275053446       24.7013182326
  H        -2.6286552212       -6.7252539957       23.2587703812
  O         6.4629383139        2.6912696491       23.2887734304
  H         6.3834270386        2.7071571321       24.2693910994
  H         6.6700982473        3.6264958622       22.9652790718
  O         6.1398898358       -3.1298867816       25.1103583782
  H         5.2825503084       -2.9828606365       24.6418196326
  H         6.3109277365       -4.0376912178       25.0863374486
  O        12.9157693693       -7.3159788294       11.4993655343
  H        11.9802010515       -7.0484896145       11.6748197621
  H        13.2091343892       -7.8766024746       12.2530496362
  O         2.0962964280       -5.0039873391       11.7206627956
  H         1.8239629344       -5.2592870469       12.6193140927
  H         1.5349524451       -5.5566815616       11.1142770458
  O         2.3314214938       -6.1674296146       18.3416316811
  H         2.7259609877       -6.5463644219       19.1871582124
  H         1.7524995622       -5.4458310381       18.5729658341
  N         7.3139978421       -3.4428887060       22.2422940691
  H         7.5366352342       -2.6018420512       22.8232509823
  H         6.3213041887       -3.4953870160       22.2258874515
  H         7.6554828021       -4.1871116252       22.7950010817
