     193
 CELL 12.4294 12.4294 12.4294 90.0 90.0 90.0 i =    73320, time =    36660.000, E =     -1096.4884818765
  O         3.1921439802       -1.5827402098       35.6609534766
  H         2.7530611039       -0.6954583741       35.5267703570
  H         2.5692585508       -2.2374385438       35.9811226683
  O         5.2942557491       -9.4923112441       32.6426121762
  H         6.0811034420      -10.0561463520       32.8140486509
  H         5.6034161067       -8.5302274355       32.6413467652
  O         8.8667677260       -4.4465825989       34.8226661513
  H         9.8188644485       -4.3005609744       34.6203912637
  H         8.6372183709       -5.3675410969       34.9198430452
  O         6.2818919750       -1.2840245164       34.3393185278
  H         5.9240116831       -0.5738872151       34.9444415101
  H         5.8464659155       -2.0676729224       34.6971402448
  O        -4.5012705417       -6.4370413243       30.6174473655
  H        -4.3904113524       -5.5726947482       31.2120008833
  H        -4.3936349149       -6.2044611487       29.6470289334
  O        12.5559239302       -4.5318181892       42.0190756932
  H        12.1442131159       -4.6267440184       41.0706821314
  H        12.4559148172       -5.4664109682       42.3491824500
  O         5.2545762741       -2.4954091391       25.0118242403
  H         4.7299845692       -1.8717822662       24.4965424177
  H         6.2313046664       -2.3655415487       24.6697964314
  O        13.0866478679        3.6440896881       37.2697188393
  H        12.1396744974        3.4879201902       37.4259094309
  H        13.1468783431        3.9813911307       36.3328606979
  O         1.6131931731       -7.5497279079       27.2819986402
  H         2.5086486113       -7.4293478057       26.8888548185
  H         1.0587382720       -7.7637288128       26.4456236530
  O         8.2724806629       -3.8604663384       26.8877729712
  H         7.7475536999       -3.7894339171       26.0833095690
  H         8.2221294466       -4.8610209743       27.1201034783
  O         8.1752374270       -6.3328598612       28.0222290506
  H         8.9975807638       -6.8755320024       27.9919259234
  H         7.4310914459       -6.9141879152       27.6399153828
  O        -0.3116904297        5.1474790835       30.5255595334
  H         0.6053144357        4.8315731495       30.2923771631
  H        -0.9351310217        4.7089550166       29.9367819617
  O        -3.4178355580       -0.4798797333       37.8962828754
  H        -2.9384299231        0.2880694422       37.5484118417
  H        -2.7218715905       -1.1330180026       38.1222263944
  O         4.9160109386       -3.5896939993       29.1906452582
  H         5.5880918808       -3.0017551932       28.7961604457
  H         4.7318787700       -3.2904860695       30.1466229681
  O         4.6805508377       -0.6584977435       30.0732407309
  H         4.1217997941        0.1766778084       30.1633839338
  H         5.1478969992       -0.5334101424       29.2117242603
  O        15.3545968449       -3.5773706907       33.4373300960
  H        15.4272324666       -2.7943374089       34.0881971503
  H        14.5659343442       -3.3525592973       32.9720462844
  O        12.0524740096       -5.0609771360       27.0130572083
  H        12.8862359292       -5.4157904137       26.6920300711
  H        11.7700777040       -4.3582777387       26.4129904990
  O         8.5127159599        2.6289701906       35.3373134816
  H         8.4022219988        2.3644793404       34.3744070984
  H         7.6202655744        2.3999388741       35.7152349181
  O         5.2474802724       -2.8834591186       31.8448977665
  H         5.2384128619       -1.9393872665       31.8246286318
  H         4.4379769159       -3.1466461124       32.3996921289
  O         7.8143041389       -7.1083942377       35.2933643070
  H         7.3440081528       -6.9135475541       36.1645543842
  H         7.9800995824       -8.0731151608       35.2963845089
  O        12.8639379436        3.3746316012       21.9959464980
  H        12.3760927716        2.5530998189       22.2443638751
  H        12.2570413573        4.0649149399       21.5452899323
  O         3.2510910289        3.4391469710       35.1720065619
  H         3.8819518801        3.0347067236       34.6058482728
  H         2.3979121639        3.2545043207       34.7290699240
  O        12.0816206519        0.3745123775       36.1464640770
  H        11.5879458099        0.9848644361       36.8040506241
  H        12.1573352532       -0.5662557746       36.3646260006
  O         4.5373350294      -10.0277710333       25.5118194798
  H         4.4042100775       -9.3953131048       24.7786946954
  H         3.5792243635      -10.3587260499       25.6838648731
  O         1.6758938307        0.2133680657       32.7601993102
  H         1.9000429913        1.0648883299       32.3934958516
  H         1.9548033457        0.2205019660       33.6847159764
  O        11.3675176740       -4.4798205282       21.6901420041
  H        11.9740342901       -4.6174894612       22.4249106603
  H        11.7080574003       -3.7545217313       21.0774894737
  O         8.8798023583       -9.6841711089       39.8555922214
  H         8.0371734307       -9.1755823410       39.5847851798
  H         8.5512337067      -10.4619804700       40.3438200537
  O        10.4738756564       -2.6362942573       26.3945334886
  H         9.6567110635       -3.1077608636       26.6465126773
  H        10.7789571417       -2.1465447981       27.2090430054
  O         4.4700001317       -6.3548111563       29.0279485355
  H         5.0101680630       -7.0415568757       29.4922008109
  H         4.9859442058       -5.3971533080       29.2001258244
  O         2.0148757177      -11.6659564886       35.3248436839
  H         1.0699961818      -11.7385674146       35.5849656919
  H         2.4232832134      -10.8989405712       35.8658409580
  O         0.0961139312       -3.0557391879       32.0069718435
  H        -0.0685509363       -2.1020909991       31.8032486619
  H         0.0455232050       -3.4517221643       31.0719211555
  O        -0.2242935801       -2.1557547623       36.8554381181
  H         0.4423848369       -1.8701849179       37.5215333069
  H        -0.9609560420       -2.4095943357       37.4236667902
  O        10.6589145079       -7.7162995475       28.1694734409
  H        10.9851874415       -7.4244348233       27.2718443941
  H        10.2953064497       -8.6321476274       28.0120206036
  O         1.3993784702       -0.9375236318       26.2504781763
  H         1.6753227997       -1.4469343907       27.0741488713
  H         1.9033005166       -0.1474600994       25.9731393543
  O        14.5246957588       -3.1164433560       28.3358923748
  H        14.0753195331       -3.7006185835       28.9305137976
  H        15.5023847667       -3.1974239964       28.6245871073
  O        14.5721545901        1.7365120400       26.3690997865
  H        13.9009766426        2.2525272444       25.9051473354
  H        14.2335167144        1.6815436224       27.3073642136
  O         9.3481393949       -8.3545764891       31.8118234441
  H        10.0785152870       -7.9032566287       32.3530762686
  H         8.8352370137       -7.7155265667       31.1643521328
  O        10.6361729778       -1.1498884695       28.9097331866
  H        11.3174241406       -0.9617751902       29.5487032904
  H        10.0590560968       -1.9128707897       29.2318908003
  O        10.4232060868       -7.0334741767       37.2021196064
  H        10.9370211156       -6.2042723708       37.1630531718
  H         9.5989282405       -7.0009580421       36.6722941881
  O        14.7252558567       -8.1468136722       29.8031705422
  H        15.4656098589       -7.5602137695       29.5890532568
  H        14.1614312903       -8.0030826994       29.0468437770
  O        -3.9156035338       -0.8138854460       20.0167979911
  H        -4.4478727358       -1.2053206969       20.7675754424
  H        -2.9107819648       -0.8702463596       20.2145327903
  O        10.1808649413        2.0572671774       37.4191321275
  H         9.6113828051        2.2673362358       38.1838519547
  H         9.5987701954        2.2609557394       36.6021975951
  O         8.2163408828        0.4692322672       41.1448810254
  H         9.0394197112       -0.0631787014       41.0396683629
  H         7.8418296995        0.1446312773       41.9891207995
  O         6.3140880723        3.8786374099       27.2279941961
  H         5.6917269597        3.4461343560       26.6072032350
  H         6.3323054868        3.5088911682       28.1127784945
  O        13.1770719130        1.6731515033       29.0478941986
  H        13.1448286755        0.7153626705       29.3003321547
  H        12.3271639450        2.1401013844       29.1508450296
  O        18.6160319111       -1.3592938634       27.6354099933
  H        19.5190467235       -1.0321762199       27.5595989816
  H        18.4202252758       -1.7018051659       26.7072418999
  O        10.6625448349        2.2871478840       30.1517956303
  H        10.3650968950        3.0124129683       30.7889040339
  H         9.8979950981        1.9923229811       29.6587477144
  O        12.9944387835       -5.0253931852       36.2893833656
  H        13.9105066864       -5.3681762508       36.1632122658
  H        13.0464706562       -4.1202922603       36.5835241246
  O         3.3637126736        1.6034651751       30.7229562662
  H         3.8892295962        2.0554579554       31.3614824685
  H         2.8040828675        2.3398706703       30.4212797179
  O        -1.1758155913        0.0899043852       31.9335668559
  H        -1.3648658626        0.9570873903       31.4925794594
  H        -0.4027512489        0.1283392872       32.5296048728
  O        15.3513176699       -4.1049129682       25.7459290151
  H        15.0514423638       -3.7315742123       26.6105385471
  H        16.1863063221       -3.6072096529       25.3890160646
  O         7.7178106001       -4.2838101759       32.3077351023
  H         6.9664849017       -3.7348324854       32.1065382893
  H         7.9962286471       -4.2342151969       33.2732670514
  O         1.1755699619       -0.8043299970       30.0055898666
  H         1.7541916841       -0.5418217093       30.7217881235
  H         1.6453092732       -1.5328138757       29.5316896000
  O         6.4433934132        0.8875666835       36.6604154575
  H         7.0814829713        0.4465712735       37.1660054649
  H         5.7173597907        1.2826511585       37.1807227641
  O         6.8241993631        3.4099222146       29.9468200037
  H         7.0383509402        4.2732245350       30.3620359376
  H         6.1663790555        3.0296485547       30.5664424670
  O         6.9000028432       -5.9204644776       37.7171135318
  H         6.3976551875       -5.4369275967       37.0254586821
  H         6.1081947888       -6.1750902823       38.2762254221
  O         3.0484636403       -6.3658079209       35.9999284604
  H         3.4738733019       -6.5344361227       36.8557358060
  H         3.2642528982       -7.1790204641       35.4257640891
  O        -1.0454754773       -7.2456612092       33.1601171677
  H        -0.9778408061       -6.2904825957       33.3952602204
  H        -0.5389688526       -7.2158028780       32.2504013755
  O         7.9333973897        1.9433746380       32.8780862391
  H         8.2359881981        1.0179983532       32.5160061665
  H         8.5038082243        2.6426184680       32.3819401521
  O         7.6974522473       -2.7941733305       36.7359275909
  H         7.9109850110       -3.4649232291       35.9815319485
  H         8.3647403220       -1.9883406779       36.7205493522
  O        18.3911291439       -6.9316674713       20.8398597662
  H        18.6906174539       -6.1545687470       20.2702688759
  H        19.1634460518       -6.9133794208       21.4976139069
  O         5.5975753683       -4.8494286886       22.8996920126
  H         4.7469593665       -4.6638914270       23.3538899625
  H         5.2796699102       -5.4323224922       22.2460561489
  O         4.2312606784       -6.5465373015       26.3554596946
  H         4.3907910808       -6.4114589690       27.3782711408
  H         3.5665157953       -5.8149187402       26.1349557780
  N         8.8384424662       -3.0327896031       29.6332453112
  H         8.0981166163       -2.4158343768       29.9378291443
  H         8.4054192843       -3.7018951663       28.9821795753
  H         8.9882169135       -3.4951600072       30.5361604555
