     193
 CELL 12.4294 12.4294 12.4294 90.0 90.0 90.0 i =    89320, time =    44660.000, E =     -1096.5338246630
  O         6.4426656227       -1.2885367737       44.1704430796
  H         5.7490242236       -1.1370954384       43.4647492388
  H         5.8493377384       -1.0831603216       44.9506681776
  O         9.0910272844       -8.2462091941       41.9864683855
  H         9.9236107032       -8.6397790992       42.3728780522
  H         9.0611463747       -7.3496056039       42.3127190156
  O        11.4548693042       -2.7994622927       43.7842879268
  H        12.3686574883       -3.1986848896       43.6225398914
  H        11.1170837001       -2.8312443841       44.6920193619
  O         8.6816272713        0.0716108374       43.1985011455
  H         8.0624938260       -0.4745985353       43.7651592353
  H         8.3732299808        0.9584839951       43.4803703381
  O        -1.4866948541       -5.3641912095       39.6207971608
  H        -1.6653043579       -4.6785564755       40.2680884305
  H        -0.9541860662       -5.0359574152       38.8354695452
  O        14.6939645677       -2.7838933051       51.1659957664
  H        15.5053539455       -2.4816099751       50.6725384362
  H        14.7347412621       -3.7793418871       51.1026146364
  O         6.2796354817       -1.1422117285       36.5040756078
  H         7.0726731225       -0.8735756256       37.0304324822
  H         6.3487344615       -2.0387916456       36.1651932238
  O        14.7529554478        4.0454352784       45.0417874191
  H        14.3263776816        4.8594983626       45.2770764306
  H        14.7816627089        4.1600572372       44.0490144006
  O         6.3941988400       -8.0517105883       33.1511614673
  H         5.9926027682       -7.3203156594       32.6719967282
  H         5.5982208001       -8.6253505794       33.4353747014
  O        11.1220919486       -3.0585865330       34.1960440732
  H        10.9342088461       -2.2740652193       34.6908567808
  H        10.4290569535       -3.6839809182       34.5123285957
  O        12.1340242298       -4.6515178670       37.2227906084
  H        12.6235399658       -5.5052859810       37.0363491726
  H        12.7457012038       -3.9820669673       36.8011543696
  O         2.7444838287        6.7267733433       38.5128567397
  H         3.6913830431        6.5066694579       38.1712643625
  H         2.1924900675        6.1503915379       37.9618929997
  O        -2.0571670855       -0.1407603470       47.3069334033
  H        -1.7365656128       -0.1069071007       46.3638060055
  H        -1.4103085320       -0.3155836233       48.0193351991
  O         8.4593704903       -2.0718812818       39.4402243474
  H         8.9274923139       -1.7346322404       38.6804346908
  H         7.5811008735       -1.5059899767       39.6740981850
  O         9.0271041166        3.9486274576       39.3400271643
  H         9.2272522100        4.1702515877       40.2969708289
  H         9.6811400593        4.4525238329       38.7759331607
  O        17.4677667027       -0.5974669849       42.0232866675
  H        17.3192963704        0.2305989632       42.5997479228
  H        16.5927632660       -0.9476982476       41.8052186758
  O        15.9460899115       -4.5994154678       35.3181129298
  H        15.0920829060       -4.2887745647       35.6038784797
  H        16.3399676032       -5.2502421065       35.9355998849
  O         9.6980284162        3.4923570836       45.7545856656
  H         9.9289874116        3.1332016684       44.8921460362
  H         8.8148502231        3.0603990498       46.0566805259
  O         6.4709775781       -0.4521376867       40.0077859383
  H         6.8007484882        0.4604727317       39.9932062644
  H         6.0477604149       -0.5889119832       40.9294674727
  O        10.7835019349       -6.3326909214       45.3932681384
  H        10.1104355821       -5.6403459551       45.7010179454
  H        10.2225049360       -7.1823270697       45.4832977310
  O        14.2596712743        4.1893759952       29.8754261884
  H        14.6653667127        3.4593934176       29.3291920751
  H        14.5393575822        5.0619669129       29.4624415980
  O         5.1908536152        6.8734097279       41.3642155979
  H         5.6626740934        6.2754031927       40.7628554089
  H         4.2244752239        6.8372101646       41.1000487688
  O        14.9026780843        0.4468007575       44.7567859907
  H        14.3876619716        0.8125594124       45.4919949633
  H        15.2206523754       -0.3728922404       45.2025405891
  O         7.5838274699       -9.8771032596       31.2615688703
  H         8.0104363950       -9.1816334366       30.7179221428
  H         7.3413485467       -9.2746489427       32.0382530688
  O         5.1308587211        2.5867185126       40.6787691010
  H         5.5649546004        3.3626844501       40.2511931862
  H         5.5043022058        2.5492564945       41.5752920049
  O        13.6671645343       -3.5869418597       30.1513234957
  H        14.3229522828       -3.7557550234       30.9080654515
  H        14.0213592222       -2.7412454151       29.7326059399
  O        11.9489011545       -9.2111470393       48.1716506435
  H        12.3039609346       -9.6991368439       47.3557300022
  H        12.1701187216       -9.8443388078       48.8786169035
  O        13.8222738995       -3.1214434694       35.3331588026
  H        13.2340776397       -3.6172328923       34.7245235596
  H        13.2736426117       -2.2444014049       35.5867628865
  O         7.4979907428       -4.1028337459       37.8030089404
  H         8.1433008311       -4.1932841714       37.1023544700
  H         7.8747837234       -3.3865619685       38.3747489535
  O         4.5655774556      -10.7382763978       43.5004991671
  H         3.8159845542      -10.8834139409       44.0898860560
  H         5.3835683352      -10.4893702576       43.9692445218
  O         2.4698345661       -1.4540252835       41.0944998808
  H         2.4005665503       -0.5776963430       40.6337615847
  H         2.3187079444       -2.0515359277       40.2702743537
  O         3.2633128379       -1.9952916877       45.8524001829
  H         4.0986962106       -1.7925641443       46.3687127761
  H         2.7124476077       -2.3565482162       46.5193308935
  O        13.3215372726       -6.6659079665       35.9342048165
  H        13.4852283097       -6.3929115252       35.0120028096
  H        12.7978441815       -7.5195182236       35.7504218722
  O         5.0851970903        0.3233500408       34.0425718249
  H         5.2068446028       -0.1055193717       34.9092318208
  H         4.6220444800        1.2150980974       34.1881480424
  O        16.5671248974       -0.8510730034       38.0275802915
  H        17.4334465513       -0.9461111771       37.4715569624
  H        16.9087602424       -0.4666689672       38.8633522709
  O        16.7434660088        2.8537580103       34.0333775840
  H        16.0253853393        3.3201072794       33.5086837420
  H        16.3472026482        3.2390858055       34.9195581723
  O        12.2518161892       -7.6629504017       39.5917172133
  H        12.6020733443       -7.7005148148       40.4866047334
  H        11.6600721587       -6.8308400008       39.6248508951
  O        12.3097227791       -1.0843126037       36.5085191727
  H        13.0082949093       -0.3874978653       36.6176137309
  H        12.0924521048       -1.4233227605       37.4871833142
  O        13.5054275958       -6.0165217748       45.6744421011
  H        13.9945424557       -5.3446890992       45.1722313308
  H        12.5214004934       -5.9707076419       45.4290941933
  O        17.9149725301       -5.8048473643       37.1506266052
  H        18.5598665702       -5.0643927131       37.3857196613
  H        18.5208918678       -6.2819718376       36.4628823046
  O        -1.6436501499       -0.2622893260       28.9137691913
  H        -2.4698266440       -0.3062831534       29.4320515351
  H        -0.8721100850        0.0650374978       29.4107662483
  O        12.9177407978        2.0112129925       45.9592772468
  H        13.3768396832        2.8558408363       45.5073662102
  H        12.1696390027        1.9169643558       45.3508414195
  O        10.3441608784        1.3699600705       51.7403116697
  H        10.3039531832        0.8763674796       52.6206250788
  H        10.0090819948        2.3451648037       51.8343099160
  O         9.3465053688        3.8741214602       36.3673816116
  H         8.8245527977        3.0889949008       36.1344724572
  H        10.2894068816        3.7348316117       36.1427090117
  O        15.4537745675        3.5733640651       36.1569896106
  H        14.8148511702        2.7790061899       36.3349114449
  H        14.9694767852        4.3243830644       35.8588179249
  O        21.2714237705       -0.2378769263       37.4539177068
  H        21.8066600375        0.3306761586       38.0286978995
  H        21.7193600827       -0.1200506811       36.5810091124
  O        14.7591282489        1.9244497905       40.2932639821
  H        14.1673660820        2.2587865243       39.5909769760
  H        15.7353402431        1.9540165662       40.0690860688
  O        15.2253443389       -4.4126554730       44.5842088730
  H        16.1109295601       -4.8245905463       44.4142668465
  H        15.4756742141       -3.5957294055       45.1500182410
  O         6.1956536442        4.9493592147       39.3912287280
  H         7.0028783598        4.4611580254       39.1208695735
  H         5.9382290313        5.4704205086       38.6311878559
  O         0.7692020006        1.1657860887       42.6027565030
  H         1.4399195238        1.4153672832       41.8847776405
  H         1.3474650911        0.7363882825       43.3195515261
  O        18.2043265506       -3.2034243755       34.7630618735
  H        17.4283353499       -3.8318313714       34.9989624174
  H        18.7444088556       -3.5892746732       34.1388703648
  O         9.7795817107       -3.3384249623       41.5334511903
  H         9.2983529635       -2.9001842518       40.8238565187
  H        10.3895751650       -2.7842950144       41.9880105190
  O         1.9992756661        0.9851776155       37.0305899559
  H         1.6423531438        1.5589371032       37.7281700637
  H         2.8198696796        0.5843297114       37.4870912009
  O         7.7704261253        1.7791730093       47.2076958332
  H         8.5349056978        1.2152517365       47.0232152110
  H         7.0076679052        1.2411312920       46.8373213686
  O        12.7700063547        2.3186444206       38.4388088766
  H        11.9521057802        1.7862463737       38.8006459017
  H        12.5132267770        3.2282700335       38.7152121706
  O         8.7881171180       -4.9447684405       46.7760592922
  H         8.1876617887       -4.4746706950       46.1516116272
  H         8.3517757762       -5.7370996974       47.1428187147
  O         5.1443056084       -5.5193404221       44.0608590536
  H         5.9442437180       -5.0832426716       44.3504624444
  H         5.2755506483       -5.5569838914       43.0262590662
  O         2.3678333172       -5.7538240332       41.0428894011
  H         1.8638854381       -5.0613622119       41.5901155939
  H         2.1222247308       -5.6655387936       40.0914050513
  O        11.4820190101        3.2282058546       43.1181029823
  H        11.9737938248        2.3821706405       42.8792271339
  H        12.1827320187        3.8946177508       43.0475722043
  O        11.1835759211        0.1556996992       44.7569577941
  H        11.7426477000       -0.4964512632       44.2532883212
  H        10.3011636391        0.0996116978       44.2864104608
  O        21.3934306634       -5.4067323218       30.7205665299
  H        21.7996568415       -4.7038787367       30.1086939235
  H        22.0917412504       -5.6592236561       31.3050380368
  O         7.2311940030       -3.9849309703       32.4575189620
  H         7.8881902614       -4.2701154177       31.7308824268
  H         6.9514970811       -3.0534166838       32.2865367289
  O         7.3021271389       -6.9652126633       35.5236324300
  H         8.0162824250       -7.5168294372       35.8819868727
  H         7.0402666416       -7.4242920730       34.6595322024
  N        11.7437144789       -2.0461702342       38.9648315882
  H        10.9590824352       -1.6241497748       39.6213553115
  H        11.4657300396       -3.0066739389       38.6509679943
  H        12.5987993082       -1.9525022320       39.4890464168
