     193
 CELL 12.4294 12.4294 12.4294 90.0 90.0 90.0 i =   102120, time =    51060.000, E =     -1096.5298425449
  O         6.0567009926       -1.3365431844       52.0253364660
  H         5.4990278873       -0.5835601816       51.6542347305
  H         5.7948256255       -1.4303128038       52.9534648143
  O        11.2659197328       -6.7955965490       48.9008526730
  H        10.8313362677       -6.1735802979       49.5392980921
  H        12.0109313997       -6.2575067023       48.4461668217
  O        12.4127798561       -0.4797222238       53.4663153826
  H        11.9877294690       -1.3387938133       53.3377557923
  H        12.4798809680       -0.4103196296       54.4692385230
  O         7.5920315912        2.0571746550       49.8154036280
  H         6.9335492939        1.2980974452       49.9464943369
  H         7.5318854298        2.5190891138       50.7510597649
  O        -2.7919713704       -4.4216896192       50.6298747687
  H        -2.3576675914       -3.7876067095       51.2585922154
  H        -3.2067904927       -5.1494746881       51.1587899547
  O        17.5013320453       -0.7157552932       60.1787960171
  H        17.6342783640        0.2606066764       60.1092210963
  H        17.4064614775       -1.1232150973       59.2827173954
  O         7.5068266019        0.6919908100       44.5317273608
  H         8.3951719819        0.4788436292       44.9940794713
  H         7.0295570615       -0.1113197799       44.2255701646
  O        15.9797579364        4.9462046234       54.5011189934
  H        15.3220623764        5.6644413568       54.6311837638
  H        15.4932113203        4.1958347082       53.9426752686
  O         5.4355419880       -5.7820342736       40.1478640200
  H         5.0951816417       -6.3600776776       39.4190225330
  H         4.7589278626       -5.8354468095       40.7962706485
  O        12.7881054206       -0.6939235626       43.6881543941
  H        13.1513317428        0.2618397580       43.7181004076
  H        12.2901522115       -0.7944945109       44.5263114152
  O        11.0336721537       -1.4839229318       45.9057021240
  H        10.6761043682       -2.1884646900       45.2869804778
  H        11.1056077558       -1.9266862866       46.7798855426
  O         5.7271240219        7.3765695113       46.0284280375
  H         6.7273680816        7.2902641849       45.9848958208
  H         5.4842379753        6.4409926114       45.7314944116
  O         0.8432745245        0.1760408981       59.3150584773
  H         1.3539967092        0.8265684069       58.7608836362
  H         0.9636610023       -0.6105116186       58.7088514603
  O         8.1071294521       -0.6327553024       48.8460014495
  H         8.7462655267       -0.2671297945       48.2104192524
  H         7.1684978972       -0.4461862165       48.5095681439
  O         9.7091730611        4.5846168937       46.4213825316
  H        10.2167305975        5.1167634123       47.1276330068
  H        10.3469013202        4.0816804695       45.9410656678
  O        17.4665327962        0.6790442636       50.5844629780
  H        17.2648806972        1.3116875327       51.4099729732
  H        16.6288673028        0.5608206809       50.1142442908
  O        17.3317558618       -2.2922471603       45.2788708872
  H        16.4150612591       -2.5184240573       44.8350403160
  H        17.6071856554       -3.2018119867       45.5279488089
  O        10.0308540133        5.3787212519       53.9793482386
  H        10.2657282692        5.3984306298       52.9992223525
  H        10.3495524606        4.4450657542       54.2624345223
  O         7.2050630645        3.7841026692       47.5528325843
  H         8.0509286255        4.0502217816       47.1608937535
  H         7.3713780862        3.2019175422       48.3654273646
  O        11.6640692777       -5.4790932195       55.5911554454
  H        11.1264127821       -4.7288355338       55.9524945810
  H        11.1788769498       -5.9570505884       54.9389141878
  O        13.3332447806        4.0994765763       38.0273633468
  H        14.2622519652        3.9637017187       38.0306864044
  H        13.3047129301        5.1236758742       37.9953620327
  O         6.6924402819        7.1639001923       49.6746491290
  H         7.1375223365        7.8290258793       48.9766503759
  H         6.2019694118        6.6279690091       48.9855376607
  O        16.6735608661        1.1347254247       54.9462203907
  H        17.4330620869        0.6389181734       55.1580048012
  H        16.0854272131        0.4308632587       54.5326687516
  O         7.4662520782       -9.2667215344       40.0403833348
  H         7.8649720897       -8.4095961736       39.7531633389
  H         7.9292329147       -9.4865968223       40.8851734494
  O         3.7750156585        4.5086202787       50.8800962487
  H         4.4568136284        4.5958376542       50.2109820850
  H         4.0260175476        3.7797071899       51.5280235336
  O        13.5094527693       -2.3918960324       38.2339256462
  H        14.0538158057       -2.9990161836       38.8071492033
  H        14.1880466607       -1.8968539361       37.7190728647
  O        13.4934103869      -10.3774663987       56.1214904107
  H        13.6242796474       -9.9848654514       55.2256909343
  H        14.3531202120      -10.2244772884       56.6336743510
  O        15.1788888374       -2.8525038741       43.6493918896
  H        14.8374708556       -3.6796112584       43.2329232654
  H        14.4589174708       -2.4130837515       44.1560901996
  O         8.1590770142       -3.5211612021       48.3951835960
  H         8.8412569257       -3.7264584018       49.0570481374
  H         8.1343403012       -2.5580460439       48.2966276552
  O         4.7921487689       -9.7660367152       52.7069850208
  H         4.6158288297      -10.3864027536       53.4517357208
  H         5.7376370079       -9.5941226532       52.8153701366
  O         2.6646251421       -0.8547820760       49.0772970787
  H         1.9837008042       -0.3938619000       48.4619356903
  H         3.4954504095       -0.9924527981       48.5262302589
  O         3.0628201532       -1.2972285622       53.8462657460
  H         2.8168462481       -1.9688917604       54.5696847829
  H         2.2322130951       -1.0755227129       53.2665995307
  O        13.2175687936       -6.3205104165       45.3453483245
  H        12.8564928965       -5.9509855337       44.5182626833
  H        12.8480703059       -7.1874020414       45.4588879167
  O         7.8330028646        2.7860356811       42.8327654939
  H         7.5479103643        2.0737117323       43.4581979093
  H         7.2126730228        3.5467770747       42.8871350944
  O        18.1552801196        1.7176286693       46.3799536377
  H        18.7426730464        1.3547283871       45.6379470960
  H        18.7305049381        2.4433487237       46.6146502331
  O        18.1995809214        4.5226081081       43.7196514500
  H        17.4033629327        4.6786917292       43.1427888254
  H        17.8376342560        4.3029659925       44.5511031031
  O        13.2689574928       -5.1443899641       47.8607045318
  H        14.1557883128       -4.7474172352       48.0529944182
  H        13.3125966819       -5.5466659152       46.9370633968
  O        14.1554341111       -2.4752270556       46.1865921143
  H        14.8128404338       -2.5831580194       46.9037822227
  H        13.4389162430       -3.1026487697       46.4292275000
  O        14.3793696536       -5.1453083192       54.4473312619
  H        14.6912213861       -4.8000519437       53.5793876029
  H        13.3991216302       -5.1009160076       54.4266400968
  O        20.5894464244       -5.9939517297       45.0294663336
  H        21.1377789143       -6.6799655177       45.4614969981
  H        20.0587849107       -6.3627805814       44.2414577045
  O        -3.5123943942       -0.6512700066       39.0606343988
  H        -3.6791852551       -0.5010751639       38.0205746106
  H        -4.4714203073       -0.8715871714       39.3069384802
  O        13.8521100934        2.8341714111       53.3050876054
  H        13.4576795208        3.5773463086       52.7684388744
  H        14.0303575768        2.0607671219       52.6704574094
  O        10.2439430657        1.4821638906       61.7222432747
  H        10.5485046450        1.4355484792       62.6450440500
  H         9.3336849711        1.8406982902       61.8608260378
  O        12.3088740567        3.6523305677       45.5333663470
  H        12.7045740779        3.1001137917       44.8100810460
  H        12.4572608022        3.2677441919       46.4330041514
  O        16.1207939435        5.2567229707       45.7631871013
  H        15.7785638754        4.3042580370       45.6277237317
  H        15.3581463896        5.7526003359       45.3951172559
  O        21.9586253421        0.4911175041       46.4654224814
  H        22.2535087868        1.4038894171       46.2813525452
  H        22.7437221402       -0.0966756571       46.2964004778
  O        14.7595137014        2.2301915944       48.4129546161
  H        13.7914426444        2.4673338468       48.3865083917
  H        15.0806105690        2.9706530464       48.9288701920
  O        15.4119396368       -3.7520266209       52.2788556190
  H        16.1716858589       -3.8366954956       51.5633512350
  H        15.7093331045       -2.9899663274       52.8332087408
  O         5.1059169568        5.3845907442       48.2217933210
  H         5.8115821903        4.8354902320       47.7882489643
  H         4.4516783859        5.5199553149       47.4621831935
  O         1.9466784320        0.7209695970       51.5759136062
  H         2.2157342281        0.7741896241       50.6398079549
  H         1.1785525813        0.0782146235       51.6742858491
  O        18.6523895254       -1.0923788022       43.1102433213
  H        18.1936966557       -1.7581520851       43.6897538810
  H        19.3886991474       -1.6231626194       42.7878335231
  O        10.9954044940       -2.5522605458       52.1276748828
  H        10.3046554463       -1.9621074829       51.7404883825
  H        11.7279010091       -2.6375291721       51.4685974726
  O         3.2013289415        2.4554243823       45.6261705638
  H         3.0132203802        2.3719997150       46.6135488695
  H         4.1654343007        2.1857511977       45.4078371333
  O        10.6460028457        2.9949401518       54.9681842800
  H        10.8776514063        2.2336297243       54.3148638680
  H         9.6659708555        2.9710656561       55.0596999990
  O        12.1991592445        2.9840795989       48.0720464981
  H        11.5885979557        2.3348505906       48.4786341231
  H        11.9319383929        3.8570140133       48.5059910291
  O         9.7002497275       -3.7969870467       56.6829575574
  H         9.1549229155       -3.5226000768       55.9131207518
  H         9.1604178392       -4.4377965965       57.2064832737
  O         4.8953543176       -3.2813167365       50.3868490715
  H         5.4212460323       -2.5581563504       50.8742715474
  H         5.5399925628       -4.0319337298       50.1533268074
  O         3.4867312659       -3.5510365382       48.0032304400
  H         4.0546544674       -3.3562073980       48.8173358266
  H         3.9345308847       -4.2069298575       47.4853179525
  O        10.6848356830        4.0130173530       51.5603850283
  H        10.6947727214        3.1417498294       52.0307077885
  H        11.5589425041        4.0010892499       51.1376866670
  O        10.7228492152        1.4298276785       52.5504421505
  H        11.3984350049        0.8397814383       52.8599576832
  H         9.9559310889        0.8079952120       52.4117856724
  O        20.6798240739       -7.0244393437       38.6323642843
  H        20.2773946105       -6.5459216937       37.9113970875
  H        21.5492340029       -7.4388105690       38.3306525097
  O         8.0446145401       -2.8115744399       42.1682454448
  H         7.7387361598       -3.7352186386       41.9283047371
  H         8.7181657844       -2.6200993663       41.5102968112
  O         7.4715473120       -5.3983078560       41.8650507319
  H         8.2568670333       -6.0188060621       41.8830387638
  H         6.8565570413       -5.8765355527       41.2394950626
  N        11.3755936342       -2.6319235291       48.4246184665
  H        12.2279282608       -2.5348868158       48.9404736369
  H        10.6919621603       -2.1330072979       48.9308985606
  H        11.1139225770       -3.6784530766       48.4864322036
