     193
 CELL 12.4294 12.4294 12.4294 90.0 90.0 90.0 i =    72120, time =    36060.000, E =     -1096.4807870250
  O         3.2518444725       -1.5393798695       35.3677281954
  H         2.7078021207       -0.6782052986       35.0880910105
  H         2.5494231632       -2.0596623941       35.8879294670
  O         4.7093123281       -9.6656220418       32.1772811202
  H         5.1832603408      -10.4396198425       32.5818674800
  H         5.2083203488       -8.8754704034       32.2208165703
  O         8.5063878137       -4.8360884776       33.7963288070
  H         9.4847718597       -4.5988672294       33.5814162118
  H         8.4405442386       -5.8653515216       34.1044014457
  O         5.4787206457        0.0675681466       33.1218004240
  H         5.6726566374        0.1224756537       34.0357940748
  H         5.0515790642       -0.7543948444       32.8946992408
  O        -4.9518531943       -6.9576534851       29.7415799763
  H        -5.0640307075       -6.0468430027       30.1226257131
  H        -4.8795170872       -6.8676019545       28.7547649529
  O        12.7535875290       -4.8446015009       41.7684644999
  H        12.4640411136       -4.5669921395       40.8585130360
  H        12.6959209856       -5.8093914754       41.8202233208
  O         5.2508127126       -2.1018218083       24.5348217975
  H         4.5609738889       -1.6575784184       23.9599333896
  H         5.6601952785       -2.7518573667       23.8928979288
  O        12.1468908859        2.8972698261       36.4245881396
  H        11.3173480155        2.3634776468       36.5251936645
  H        12.1495888060        3.0365633619       35.4146578456
  O         1.0294217898       -7.8387901464       25.8663915880
  H         1.8525267283       -7.5213274678       25.4798849506
  H         0.6217058718       -8.5233785940       25.2391004737
  O         6.9456900888       -4.0002881132       26.8170300892
  H         6.7786523329       -3.7215225138       25.8753662092
  H         7.1045055746       -4.9636565686       26.7274448706
  O         7.8719873669       -7.1370016426       27.0718162544
  H         8.7842825618       -7.5302219337       27.2400566514
  H         7.3191208150       -7.7451707446       26.5478628622
  O         0.1681829811        4.7127403987       29.7375142827
  H         0.8347573689        4.1352024859       29.3030375119
  H        -0.7000407955        4.3892113757       29.4043950881
  O        -4.3683656430       -0.6375980112       36.5547489815
  H        -3.6703523597        0.1023312386       36.4941958767
  H        -3.7793661619       -1.2939242261       37.0560731544
  O         4.8491334908       -4.0108804608       28.5621262251
  H         5.5857529186       -3.7054843958       27.9521775184
  H         5.0934450911       -3.5543485430       29.4437114014
  O         4.7691875046       -0.3894521235       28.9055881700
  H         4.3228654205        0.4099801388       29.3360069406
  H         5.3382527011       -0.0894941002       28.2059960075
  O        15.4598366793       -2.2452330886       32.6192080452
  H        15.7662058146       -2.0421225575       33.5169294469
  H        14.4914733242       -2.5427724593       32.6387383454
  O        11.6359270261       -5.7138154557       26.7255194672
  H        12.4683947768       -6.2535671189       26.5604245451
  H        11.2265959073       -5.5073685489       25.8495000672
  O         7.5572143545        2.5368237721       35.0652370100
  H         7.5404293718        2.4221401356       34.0918215709
  H         6.8060134326        2.0279152774       35.4351478992
  O         5.0481297925       -2.4206340327       30.8677936536
  H         5.0933841369       -1.7015237903       30.2594169242
  H         4.0815035760       -2.3966445162       31.2869731647
  O         7.8674356106       -7.0355485351       34.9620268734
  H         7.1505872246       -6.7015709703       35.5568333518
  H         7.7976577875       -8.0279318349       34.9911719183
  O        12.7508074965        3.2763946189       21.0679129019
  H        12.7130025076        2.4897145753       20.4666635267
  H        12.2861007396        4.0606177025       20.5166447122
  O         2.8982098461        3.5026863078       34.0596183935
  H         3.4324147935        3.0918488047       33.3120750085
  H         1.9154293121        3.3459346933       33.8016897347
  O        11.5924759119       -0.2116866482       35.0922259059
  H        10.8826404824        0.1908091275       35.7770910532
  H        11.7283761089       -1.1313651822       35.4524052923
  O         3.6950957007       -9.6923985326       24.7081952376
  H         3.3953740186       -9.2144360375       23.8978640734
  H         2.9437393416      -10.2793733631       24.8920284683
  O         1.6610037241        0.0888702619       31.5901011094
  H         2.2152378416        0.8064810809       31.2549592013
  H         2.1839338933       -0.4105854104       32.1935029187
  O        11.2712529798       -3.9948092625       21.1067852340
  H        11.9850569533       -4.2847451403       21.6931273826
  H        11.7054713911       -3.6172799283       20.3263862323
  O         8.6884220871      -10.3238832401       39.1100208102
  H         7.7793958989      -10.0157729353       38.9787729608
  H         8.6134003636      -11.0893214727       39.7182771600
  O         9.8321274871       -2.3949380594       25.4658111220
  H         9.6558806859       -3.3791976471       25.2923045865
  H         9.7979758369       -2.3300690260       26.4426404602
  O         4.4793205617       -7.0288151825       28.1711664346
  H         5.2996414370       -7.6817278902       28.0435988796
  H         4.8137373838       -6.2536630455       28.6811148665
  O         1.7232900719      -11.7751791544       34.5896646680
  H         0.7888667197      -11.8344438042       34.9229825904
  H         2.0582199556      -10.8812125073       34.8768948214
  O         0.5552084748       -3.0129366300       31.3975310829
  H         0.1716822066       -2.2700827678       30.8746953070
  H         0.6578583022       -3.7430889366       30.7188311030
  O        -0.0425392945       -2.8365336875       36.7468541550
  H         0.8057308461       -2.8089611079       37.2653593995
  H        -0.9086811898       -2.7720887615       37.3550217825
  O        10.1858625638       -8.0812468029       27.9363450134
  H        10.9323668602       -7.5594965337       27.4406126445
  H        10.1459494687       -8.9758618229       27.5512770401
  O         2.7354825871       -1.0078981720       26.5932319640
  H         3.2106810428       -1.0097749917       27.4117559995
  H         2.9980180053       -0.2012713791       26.1237910409
  O        14.8371168875       -2.9523052558       28.6177372672
  H        14.2982210285       -3.6296435252       29.0767217793
  H        15.7581125673       -3.3340837546       28.4421577500
  O        14.0401200279        1.2142119048       25.1140091071
  H        13.4145680289        1.7917523421       24.5803731249
  H        13.5620349800        0.9980512478       25.9631169184
  O         9.2600131079       -8.4748554875       31.1161771336
  H         9.8935192197       -8.0708590945       31.6904189184
  H         8.7829672779       -7.7006180744       30.7508678541
  O        10.2497275714       -1.6068094812       28.1884998776
  H        11.1240052487       -1.2014653073       28.5192684503
  H         9.8932402737       -2.3046278976       28.9167582978
  O         9.8265469187       -5.2013377825       36.9279968549
  H        10.6126629814       -4.9408801403       36.3697750918
  H         9.2794242924       -5.7642097177       36.3122169480
  O        14.5208266874       -8.9968139998       28.2975827231
  H        15.1793784131       -8.3561167310       28.1199410011
  H        14.1541167250       -9.2696412718       27.4526872855
  O        -4.3892839433       -0.9902214170       18.9531492407
  H        -5.0375236903       -1.1418837381       19.6822181375
  H        -3.5616394590       -0.7225739482       19.4138393326
  O         9.6029812533        1.5429311863       36.4720400473
  H         9.4136556273        1.8003193962       37.3500776488
  H         9.0854641047        2.0950513374       35.8454770619
  O         8.5277061873        0.3098326919       41.2112535265
  H         9.0617762438       -0.5383546829       40.9653627081
  H         8.0449007831       -0.0442528889       41.9636238866
  O         6.1353992384        3.2581725345       26.3083382992
  H         5.3932035555        3.1696795825       25.6889946404
  H         5.7253273635        2.9800864508       27.2384114351
  O        12.5831667910        1.3234784295       27.5541967912
  H        13.0750071179        0.5158781541       27.9881069367
  H        11.8675850414        1.4702212727       28.1594853515
  O        18.3940356196       -0.0708248892       26.3021087731
  H        19.3534198008        0.0349484348       26.2502283210
  H        18.2463667033       -0.9235433723       25.8215807797
  O        10.6951999166        1.9863139428       29.7755610758
  H        10.2029169002        2.8152549899       30.0384599089
  H        10.0489274072        1.3280556149       29.4820509174
  O        12.6985949666       -5.2200559539       35.4581517085
  H        13.5839374487       -5.7260690009       35.3103973410
  H        12.9099200030       -4.4683276932       36.0456187271
  O         3.2249585065        1.6805342129       30.2302658367
  H         3.6597548313        2.3396870921       30.8355508126
  H         2.7793228902        2.2276191168       29.6120610986
  O        -1.8182049836        0.1749711609       32.5541800196
  H        -1.1901957892        0.2628479378       31.7973891860
  H        -1.3155165198       -0.2432114872       33.3093158280
  O        15.2634469643       -3.6183587573       25.6642042303
  H        14.8400582897       -3.0207587000       26.3731780765
  H        16.1158299527       -3.1880097656       25.5663700960
  O         6.7737724265       -4.4862205354       31.7361114079
  H         6.3949710212       -3.6180448813       31.6467455809
  H         7.4870873205       -4.4874944622       32.4702675675
  O         0.6193738927       -0.9730790832       29.3813893092
  H         1.2303521227       -0.6729307667       30.1186118045
  H         1.2268744675       -1.6097841726       28.8947413974
  O         5.5870086032        0.9089995177       35.8441761599
  H         6.0259647794        0.2310231041       36.4527492568
  H         4.9184275929        1.3597159659       36.3836970521
  O         6.0064511830        3.1101438316       29.2794560800
  H         6.3643564771        3.9031403007       29.6674101999
  H         5.6211423451        2.5653858091       29.9705410108
  O         6.0730372925       -5.5794758928       36.7614553965
  H         5.6229219573       -5.2677031830       35.9650568019
  H         5.3400919212       -6.0764180256       37.2033845190
  O         2.9890503314       -6.4660157259       35.3274951753
  H         3.3992013243       -6.6055096474       36.1919619801
  H         3.2657338597       -7.2363803380       34.7498147028
  O        -0.7779917299       -6.9911069944       32.2065500278
  H        -0.4494043352       -6.2582313146       32.7182326252
  H        -0.1239356573       -7.0371838380       31.4367041433
  O         7.6872240135        2.1057778743       32.3434451276
  H         7.8298521691        1.2151868518       32.0288455721
  H         8.3705422570        2.6890845536       31.9047963698
  O         7.0303307136       -2.2489836140       34.4670887422
  H         7.8034880088       -2.8228316369       34.4017910329
  H         7.2873684591       -1.5111329284       35.1713573928
  O        18.1633012949       -7.0341604993       20.2002575179
  H        18.5203925164       -6.2227809664       19.7669990299
  H        18.6188173289       -6.9308613628       21.0407416633
  O         4.9655838804       -4.3540231659       22.0542798263
  H         5.2504585963       -4.0105872796       21.2134323078
  H         4.1551337648       -4.9702476035       21.8767412727
  O         3.5483552601       -6.3613169113       25.6766276265
  H         3.7036280667       -6.5989281676       26.6559804820
  H         3.2578443484       -5.4492571848       25.6392775736
  N         8.9797496799       -3.5937491299       29.4826276748
  H         8.2925648040       -3.8237649786       28.7180458958
  H         9.4393511112       -4.4870383152       29.7400074587
  H         8.5275466922       -3.2990267726       30.3538162869
