     193
 CELL 12.4294 12.4294 12.4294 90.0 90.0 90.0 i =    40520, time =    20260.000, E =     -1096.5397080796
  O        -2.2060719534        0.4058560844       18.9959244613
  H        -1.7241058744        0.3125432213       18.1016217454
  H        -2.9239072224        1.0821223311       19.0210686619
  O         1.8135853317       -8.1363237333       14.1896181223
  H         2.5220819742       -8.7785515196       14.6179103843
  H         1.8273528518       -7.2826422237       14.7683532903
  O         1.4398887478       -5.8048566079       15.9025979507
  H         1.8554110920       -6.0513583986       16.8162061588
  H         0.4710580560       -5.6786854390       15.9496664815
  O        -0.2159844261       -0.2982231990       17.0827830183
  H         0.6681923203        0.0030018392       16.8669714061
  H        -0.2064856184       -1.1529055086       16.7067132861
  O       -10.6632912124       -4.6285694640       12.0408664423
  H       -11.3677714292       -4.1128873570       12.5683133172
  H       -10.3185712558       -4.0255222821       11.2765943513
  O         4.8495905207       -5.3212790002       20.6949688231
  H         4.4692132417       -4.9658342221       19.8521207200
  H         4.0815345253       -5.7568802318       21.1329109630
  O        -1.9836264169       -1.3754974230        8.6161876052
  H        -2.6025423283       -0.8759446219        9.2351708289
  H        -2.0438427149       -0.7463439966        7.8229346049
  O         5.6766893370        5.1611531613       18.4392734341
  H         4.7390530838        5.3846808163       18.6433409784
  H         5.5850392764        4.4828476318       17.7742828000
  O        -2.2827190581       -7.7849574035        4.7740437387
  H        -1.6292528456       -8.4731193993        4.7526472019
  H        -2.4939113749       -7.7035924814        5.7755778172
  O         0.6887993483       -0.9597318567        8.8695405230
  H        -0.2941990735       -0.7725967341        8.7938122035
  H         0.7434544679       -1.5293968601        8.0132219141
  O         1.8506201220       -4.4003413670        7.9140031081
  H         2.3286337372       -3.8635871011        8.6024330494
  H         0.9670036485       -4.6952627006        8.2983288502
  O        -9.1752161519        5.1294485021        9.5991288090
  H        -8.4135792596        4.5317464651        9.6007911763
  H        -9.6319761206        5.0187913278       10.5142805572
  O        -9.8638351301       -1.7923708688       17.0725458255
  H        -9.5190369152       -1.0815524583       17.7142239914
  H        -9.8559248546       -1.5002729878       16.1341063379
  O        -1.6113651384       -3.9675526361       10.5127537737
  H        -1.2516301914       -3.2282540373        9.9993441898
  H        -2.5795393985       -3.7722728725       10.4624048214
  O        -0.7579218388        1.4030359888       11.0071253048
  H        -0.4795437846        1.8454226268       11.8151002979
  H        -0.5070764673        1.9178187942       10.2453448252
  O         8.7301111402       -0.2064361497       14.1568335856
  H         8.4525268708        0.2152500319       13.3088600703
  H         9.2448922354       -1.0228186206       13.9136107933
  O         4.2475487136       -3.8750630973        5.8089478619
  H         4.8567221173       -4.3186144944        5.0693823617
  H         3.6649551921       -3.1401862721        5.4569399530
  O         1.9508928191        1.6257367026       16.7837685684
  H         2.4893222561        1.2573435328       17.4576923329
  H         1.2475741456        2.0635163252       17.2941713131
  O         1.1855952636       -1.0229318317       11.8543277015
  H         0.7939430133       -0.1711103324       11.5262213257
  H         1.6955808228       -0.8427628909       12.6930693940
  O        -1.4023590786       -5.4447740505       15.9363695490
  H        -1.6857544343       -4.6550330164       16.3575592675
  H        -1.7877108223       -6.2123180853       16.4696452627
  O         6.1365829595        3.8470587392        3.7841087672
  H         6.8348116210        3.5249380247        3.1201182163
  H         5.6216032058        4.5891189555        3.2668453755
  O        -1.9861460589        1.3527967826       15.5235902812
  H        -2.6365985510        0.6771560887       15.1954115551
  H        -1.3419557930        0.8359220906       16.0082949049
  O         6.1001506418        0.2962905231       18.0164988330
  H         6.7268172086        0.9805726058       18.3883380418
  H         6.1263779801       -0.5882759141       18.4066946102
  O        -2.4958153103       -7.5884751964        7.8078569943
  H        -2.0337540581       -6.7077935038        7.9861227970
  H        -1.9039281707       -8.3239791493        8.1686598756
  O        -4.8112049419        1.6154518977       12.0888027005
  H        -4.7935312220        2.5931292400       12.2360577775
  H        -5.7369238240        1.4076168176       11.5965398209
  O         5.9049959965       -5.2158905768        4.2005506123
  H         6.2436558120       -5.7451859117        4.8987479656
  H         5.9519548150       -5.7741760667        3.3917659831
  O         3.4775606504      -12.2883283593       18.7807851196
  H         3.4038948932      -12.1952230756       19.7750350027
  H         4.4606448223      -12.1114907637       18.5937698827
  O         2.2672714646       -2.9452293517       10.0454946413
  H         1.6547555620       -2.1642938796       10.0370808846
  H         3.1144460177       -2.4099614290       10.0691143090
  O        -3.4725774002       -6.2753043045       11.1233656176
  H        -3.2244835519       -5.7180962914       11.8736138406
  H        -2.6501994770       -6.7067033969       10.7798650100
  O        -4.3179271494      -10.3584313271       18.5769774054
  H        -4.6576152787       -9.6008924705       19.1785934554
  H        -4.1277750295       -9.9050383858       17.7165729005
  O        -4.5452943323       -3.9350586761       13.9053339862
  H        -5.5002074563       -3.6672706945       13.9593151627
  H        -3.9550558802       -3.3156960084       14.3355459151
  O        -6.3968404012       -2.2445266293       19.6956341985
  H        -6.9895178397       -2.9005901022       19.2485617567
  H        -5.4971510504       -2.6435548300       19.7497411726
  O         2.0233015330       -8.4825428269        7.5379256999
  H         2.3689133729       -8.0310989526        8.3662379651
  H         2.1045212692       -9.4785977805        7.7069239375
  O        -3.0245852893        0.0507622198       10.6783081553
  H        -3.7199244828        0.7369123230       10.8880877449
  H        -2.1541431974        0.5179851593       10.8396945568
  O         7.7322600357       -5.2237043195        8.6106968427
  H         6.7917085785       -5.5406163323        8.8141979721
  H         8.1968420794       -5.4430943826        9.4777067104
  O         7.2046845123        3.8698163418        7.6327285427
  H         6.4911351886        4.4030978387        7.1207598560
  H         7.9046850402        4.5344247879        7.8240468138
  O         3.3808486632       -4.5557942054       14.4465540406
  H         2.6583840623       -4.7525582449       15.0654247931
  H         2.8572978352       -4.4863470953       13.5849090711
  O         4.9729387691       -1.6745001627        9.9428234986
  H         5.3211181961       -1.8925726718        9.0481851327
  H         5.1886951269       -2.5451925589       10.5092711021
  O         0.6173877023       -2.4967021401       18.9613512343
  H         1.1343994227       -2.0856067497       18.2520446711
  H         1.0953018096       -3.3517324377       19.1624013364
  O         6.2917162042       -7.7134137861       11.9673139344
  H         7.1073802002       -7.2677008571       11.7152365086
  H         5.8497936775       -8.1031176356       11.2058712019
  O        -6.9616914505       -2.8816526349        1.9730073130
  H        -7.7229848424       -3.4806524371        2.2536230557
  H        -6.6151906355       -2.2921923952        2.6946826866
  O         3.0086496363        6.1442646653       18.1594411453
  H         3.2077383480        7.1131136122       18.3549267496
  H         2.5336357611        5.8092737584       18.9917646492
  O         2.7698270337        1.0784217090       21.3065501128
  H         1.9419872488        0.4820646374       21.1971055492
  H         3.2834944665        0.6427288991       22.0997475245
  O        -0.9405565530        4.7173081287       11.1694328242
  H         0.0382992740        5.0045861759       11.3909620785
  H        -1.2507428820        4.1106993825       11.8690894209
  O         5.5500739279        3.4620710273        9.8129907993
  H         5.3674809219        2.5251768603        9.9465701060
  H         6.1849182120        3.5003676227        9.0058462506
  O        11.9052964811        3.1041562549        9.0152831930
  H        11.6918243077        3.7180121586        9.8225258383
  H        12.6872439137        3.4351909001        8.5243671319
  O         5.3491369414        0.7377324317       10.9262469762
  H         5.4926229125       -0.1699256991       10.4803996811
  H         5.1315428460        0.4085718753       11.8601950081
  O         6.1857930555       -0.5934528467       15.4880527082
  H         6.2590956230       -0.1401894368       16.3844990066
  H         7.1222980573       -0.5670045372       15.0949244686
  O        -0.5296860846        2.8654016763       13.3715392392
  H         0.1524279570        3.5093107014       13.7469469941
  H        -0.8668476794        2.4273528352       14.2016917530
  O        -7.7933912584        0.3375124431       13.6927172483
  H        -6.9939047081        0.0748558592       14.2362927817
  H        -8.1133530291        1.2265473909       13.9830956965
  O         8.5165022463       -3.1269805582        7.2809266654
  H         8.1895953981       -3.9051480252        7.8258280376
  H         9.1477652374       -2.6308771865        7.8373962261
  O        -0.2414826480       -3.1118762892       12.9564126236
  H         0.2042962381       -2.3258416463       12.4912037617
  H        -0.9205096795       -3.3966270018       12.3435823244
  O        -4.1303580613       -2.7995113067       11.2545906207
  H        -3.9079260717       -1.8498684524       11.0426211054
  H        -4.2313162956       -2.9872033712       12.2327451809
  O        -0.0467244632        2.7110915527       18.2362986089
  H         0.2712580877        3.3056491435       18.9551512789
  H        -0.6318303933        2.1075811433       18.7072262542
  O         1.5592994494        5.2342403182       11.7926868813
  H         1.8123388303        6.1840672562       11.8569261031
  H         1.9235592555        4.8153919981       12.5820364485
  O        -2.2414152854       -3.2391654316       17.3849729838
  H        -1.4368866999       -2.9630982973       17.9420934008
  H        -3.0084261635       -3.2095234235       17.9871871827
  O        -2.4153696033       -2.4942090969       14.7932411401
  H        -1.5914116725       -2.8668652063       14.4335486718
  H        -2.3814770513       -2.4384114779       15.8148343427
  O        -7.1437423268       -6.6119917741       14.3158041039
  H        -7.9015777434       -6.0114195650       14.1695821905
  H        -6.7841344573       -6.8596961986       13.3941964281
  O         3.6495513210        2.5195257772       15.0373051427
  H         3.0315623144        2.1683606817       15.6802872089
  H         4.3632920393        2.7905687806       15.6149350479
  O         2.7357993796       -1.3698367225       13.9791877071
  H         3.5162342685       -0.7154746918       13.9798399060
  H         3.2025881340       -2.2393461668       14.0480083212
  O         8.5910178281       -8.8825419522        1.9763537772
  H         9.0174506590       -7.9411969205        1.8965230515
  H         9.1685594756       -9.4017831195        2.5149656716
  O        -3.1139705822       -6.1836488517        1.5326890493
  H        -3.8235306592       -5.5223709818        1.6144337763
  H        -2.3086586400       -5.7799111770        1.9168975121
  O        -0.6388282674       -5.5577743049        8.5621599415
  H        -0.1675291950       -6.3325216929        8.8012022118
  H        -1.1427784924       -5.1666474732        9.3358323212
  N         5.6385465973       -3.8609492776       11.1628065523
  H         5.5247285915       -3.8699209546       12.1531564912
  H         5.2019279581       -4.6864112572       10.8045324139
  H         6.5806167029       -3.8708770131       10.9405811454
