     193
 CELL 12.4294 12.4294 12.4294 90.0 90.0 90.0 i =    89720, time =    44860.000, E =     -1096.5265508287
  O         7.3220928050       -1.0884549686       44.6978086100
  H         6.6393328438       -1.0492021932       43.9649279004
  H         6.8262769663       -0.6074006934       45.4278975602
  O         9.6224765476       -7.7755972048       41.7787677613
  H        10.2357664775       -8.3738006568       42.1979296238
  H         9.4115190629       -7.1149661204       42.4752179103
  O        12.0794696712       -2.0216868806       44.8010124119
  H        12.4489855745       -2.4568437507       44.0124523796
  H        11.6670769907       -2.5819687597       45.4392764412
  O         8.4865868926        1.1190078692       43.6740495272
  H         8.0394946456        0.3355332675       44.1147688122
  H         7.7167808463        1.7371486257       43.3496486264
  O        -1.8520305748       -6.2482336176       39.1260917910
  H        -2.2149829477       -6.3020110100       40.0358323639
  H        -1.3830627033       -5.3657110332       39.1233687515
  O        15.1589466294       -2.8831940416       51.1759902492
  H        16.0088609106       -2.4822468661       50.8862112196
  H        15.2643072926       -3.8505963843       51.2860664384
  O         6.1388199970       -1.1723674302       36.4554758474
  H         7.0455681393       -1.1182778479       36.8736847442
  H         6.1300628355       -2.0415889072       35.9727658543
  O        14.2394766595        3.7133485352       45.3344743978
  H        13.7014305469        4.5450045506       45.5360864401
  H        14.3668652080        3.8180921133       44.3524457867
  O         6.2364931393       -7.9064607996       32.5384785615
  H         5.7835703986       -7.0599425693       32.2199895281
  H         5.5130449261       -8.3724518884       33.0931072316
  O        11.0368297959       -3.2995669330       34.6491751956
  H        10.8492226552       -2.3858025236       34.9374983834
  H        10.2183992030       -3.8362710025       34.7968405874
  O        12.4022702491       -4.4761575807       38.3102419712
  H        12.7907847238       -5.0476275224       37.5767378159
  H        12.7392301902       -3.5733253577       38.0786480973
  O         3.3937307048        6.8117542671       38.1346908177
  H         4.1783718508        6.2000033426       37.9999682631
  H         2.6705219513        6.2698078334       37.7561765599
  O        -1.6232560728       -0.3588040476       47.8051889346
  H        -1.4146365140       -0.0320453925       46.9027225881
  H        -0.7896674385       -0.2430621842       48.3086124191
  O         8.1890693626       -2.2303894367       39.7971672857
  H         8.4859945184       -1.8846932035       38.9588696303
  H         7.8744641106       -1.5104683388       40.3882668894
  O         8.3100467062        3.4708756630       39.4414920498
  H         8.9444842605        3.9445333176       40.0934334204
  H         8.7509885092        3.6479203650       38.5855720981
  O        17.6153642957       -0.6891285030       42.8368229688
  H        17.1010198844        0.0534730643       43.1531067833
  H        16.9912032692       -1.4348900782       42.8239442990
  O        16.2124908857       -5.2421720831       35.3655479525
  H        15.3996421620       -4.7074747783       35.5964039863
  H        16.5737974260       -5.4254355499       36.2915439297
  O         9.6789418057        3.9842605495       44.8169865621
  H        10.3971602720        3.4261056233       44.3707675714
  H         9.3426949567        3.3608657890       45.4726955349
  O         6.6446695734        0.2606850063       40.4408378898
  H         6.3373457722        1.1993628429       40.4114623045
  H         6.2919841448       -0.1480118931       41.2544394394
  O        10.4764956206       -6.1174338451       45.6289324067
  H         9.9884926166       -5.4806830160       46.1882621030
  H        10.0264846274       -6.9230679140       45.5234825059
  O        13.9129732643        4.3070059859       29.8112729534
  H        14.2576137338        3.4750308502       29.3518912133
  H        14.5219007660        5.0652081389       29.5382423856
  O         4.9093028109        7.1782230641       41.5802900754
  H         5.4111029085        6.7986169075       40.8377242053
  H         3.9798164255        7.0571635036       41.2767896930
  O        14.4128598488        0.3425339524       45.1733843906
  H        13.8335555437        0.6911553193       45.9225806573
  H        14.5949879783       -0.6365362782       45.4576496581
  O         6.8546299936       -9.2842472379       30.4442630900
  H         7.6120394197       -8.7685129479       30.0423595095
  H         6.7700047601       -8.8847737083       31.3121803344
  O         4.7767837552        2.3575656381       40.8974666955
  H         4.9050049804        3.2188198223       40.3358745893
  H         5.1808325152        2.6542372525       41.7477006492
  O        13.1393760242       -3.4330751890       30.2661194849
  H        13.7300647638       -3.8695398342       30.8894795845
  H        13.6358848800       -2.7631332403       29.7564124231
  O        11.7712322338       -9.3556510275       48.8806071350
  H        12.3101267734       -9.5606373635       48.0534074726
  H        12.0793758648       -9.8797568959       49.6638856977
  O        13.5462907745       -2.8600338820       36.0302889740
  H        12.7145131239       -3.1686761672       35.6134234704
  H        13.4230732222       -1.8625988641       36.2072065149
  O         7.4379212589       -5.0028034308       39.0696154254
  H         8.3966816362       -5.2267803751       38.7893587041
  H         7.6350075083       -4.0803564136       39.3909851546
  O         3.8496219731      -10.8725922224       43.7562697466
  H         3.1212839688      -11.2395038769       44.3451769741
  H         4.6197626668      -10.5350704121       44.2504138682
  O         2.3037783283       -1.6282708680       41.3849661485
  H         2.2713062660       -0.6805794352       41.5337587248
  H         2.7384326400       -1.8578316249       40.5076546238
  O         2.7915936923       -2.3852995640       46.2283467258
  H         3.7314899303       -2.5645465183       46.3099246737
  H         2.5031940971       -2.5250914962       47.1842767701
  O        13.6754872888       -6.8483367390       36.7226934368
  H        13.7579003814       -6.6224198983       35.7722256034
  H        13.1107909801       -7.6047909799       36.7963258744
  O         6.5159795011        0.7030923579       34.4156918197
  H         6.2865486844        0.0549764813       35.1268505449
  H         5.6453683914        1.1872688011       34.3514980523
  O        16.8712964821       -0.1843528628       38.6191884783
  H        17.3051665093       -0.6164143425       37.8102342453
  H        17.5896014040       -0.2024818885       39.3129991424
  O        16.8231556386        2.8567654947       34.0213505610
  H        15.8101608498        2.9554937631       33.9699395562
  H        17.0593309795        3.1882068723       34.9353900933
  O        12.8600125100       -7.6540248727       39.3956653366
  H        13.1476330185       -7.4173983004       40.2868700110
  H        11.9013503936       -7.2221279176       39.2963323420
  O        13.1836902029       -0.0383185262       36.6709482018
  H        14.0358684279        0.3881006477       36.7443441705
  H        12.9263819888       -0.4038268441       37.6178048730
  O        13.2534997099       -6.1544422197       46.3891555207
  H        13.8057373997       -5.6481783936       45.7371245448
  H        12.3330399298       -6.2485313703       46.0986574937
  O        18.3228216128       -6.3548405507       37.4312950717
  H        18.9086413265       -5.6029340138       37.7349159732
  H        18.7817189054       -6.6691128045       36.6363946268
  O        -2.5347290735       -0.1958719037       29.2165944764
  H        -3.2441995415        0.2560596657       29.8349101506
  H        -1.7316323216       -0.3125872982       29.7400479067
  O        12.6264616079        1.9797715223       46.4724298450
  H        13.1451601029        2.6172982138       45.9529583014
  H        11.9745611657        1.5224780907       45.8213250970
  O         9.8093421680        1.2223775080       51.6880974055
  H         9.6904392334        0.7863563937       52.6122288590
  H         9.0819871371        1.9325597933       51.7197966002
  O         9.0877535916        3.6338905935       36.6982313005
  H         8.8895923247        2.8486465391       36.0860977595
  H        10.0666629732        3.7129010764       36.6826788185
  O        16.6445432084        3.8323271132       36.4122673936
  H        16.2842587730        3.1175494362       37.0000418931
  H        15.9461917046        4.4852128477       36.4237381136
  O        21.3546177591       -0.8805498516       37.4595884748
  H        21.5439762530       -0.0969746575       38.1117140246
  H        21.9714577193       -0.6235667951       36.7518202179
  O        14.6127673461        1.6806665748       41.1678757803
  H        14.1559398766        1.9523483831       40.3127939034
  H        15.6552143431        1.7483119699       40.9877544097
  O        14.7743465723       -4.6118879271       44.5825952491
  H        15.6477551305       -4.9839967978       44.3830837543
  H        14.9218894995       -3.7726333861       45.0784239615
  O         5.7727346919        4.7469260068       39.9715210935
  H         6.6498391251        4.3240679574       39.9197850116
  H         5.7617777339        5.1042124247       39.0562705871
  O         0.4035057866        0.5489111361       42.8162351774
  H         1.0511991258        0.9235578120       42.1830419819
  H         0.9594655485        0.4348571898       43.6659659239
  O        17.6634757083       -3.1407596139       34.8167179779
  H        17.1254087119       -3.9859418670       35.0861718763
  H        18.2105889607       -3.3768412498       33.9754691280
  O        10.6601507726       -3.5857828993       41.3001465708
  H        10.1491842493       -2.7586962374       41.0520792931
  H        11.5683005451       -3.3363466318       41.5618848408
  O         2.9002489346        1.8420244492       37.8076801429
  H         2.0526510954        1.8697951639       38.3259070292
  H         3.5934519014        1.1267580697       38.0860701661
  O         9.0377175038        2.0093996139       46.9433822080
  H         9.4865900517        1.2213687765       47.2025749877
  H         8.0975491892        1.6684564556       46.7879940813
  O        12.6403739111        2.0951687643       39.0749356090
  H        11.6836554107        1.8255584093       39.2769997008
  H        12.5600398862        3.0749310076       39.2994489073
  O         8.6281191260       -4.6091077186       47.2646791687
  H         8.0826551875       -4.3657384120       46.4681423806
  H         8.1300670026       -5.4110180538       47.6406714928
  O         5.0748399434       -5.3662263127       44.3429345331
  H         5.7853946831       -4.6630478426       44.5094957965
  H         5.0755293204       -5.4818809021       43.3719556182
  O         2.2043352677       -5.7667885688       40.9318938522
  H         1.6691265520       -4.9592852903       41.2505959936
  H         1.9950237263       -5.7676213289       39.9891044659
  O        11.6792504417        2.9215757650       43.1898908190
  H        11.9457607858        1.9945007845       42.9878882873
  H        12.5618026868        3.3909060948       43.1764055768
  O        10.7122265990        0.3216404149       45.2978949706
  H        11.1343443473       -0.5209238459       44.9019234319
  H         9.9752722848        0.7638310423       44.7485160093
  O        21.7153031705       -5.2411487458       30.7623648560
  H        22.2358293890       -4.7341087996       30.0392918144
  H        22.2036168387       -5.2434514826       31.6198739566
  O         7.3887065541       -3.8168041699       32.3360644533
  H         7.9111888996       -4.2468045874       31.5844115479
  H         7.5480273599       -2.8442220373       32.2463833044
  O         7.5537870375       -7.1071658909       35.2925847108
  H         8.2551491595       -7.6997715013       35.7720651629
  H         7.1847948512       -7.5690250299       34.4555484684
  N        12.3232933645       -0.8330643229       39.2350148396
  H        11.3309224626       -0.9319490485       39.1661329978
  H        12.8140009735       -1.6529493386       39.6614854800
  H        12.5685376638        0.0741465552       39.8311938901
