     193
 CELL 12.4294 12.4294 12.4294 90.0 90.0 90.0 i =    62920, time =    31460.000, E =     -1096.4809902983
  O         2.0041177731       -1.5041510185       30.1333756156
  H         2.8643529142       -1.3100319540       30.4662068152
  H         1.5475454484       -0.6153843317       30.0751862848
  O         4.2686914001       -9.7685062262       26.2745346239
  H         5.2578027851      -10.0049788242       26.3522102820
  H         4.2210599589       -9.2048406982       27.0719400519
  O         7.1727794700       -6.3469960045       28.9188936104
  H         7.3671048671       -6.7671060459       29.8101930014
  H         6.3626338975       -6.8524281407       28.7367954315
  O         4.5773956899       -1.1131140599       30.6741173053
  H         4.4800322151       -0.3361812022       31.3337942198
  H         5.1875283068       -1.8185736982       31.0295196387
  O        -6.3006804036       -6.1327760420       24.7615920165
  H        -6.4737786961       -5.4982533471       25.5414644536
  H        -6.0366812168       -5.6349894515       23.9673181637
  O         9.4283362236       -6.2688232536       33.4625659728
  H         9.1815584229       -5.6774053831       32.7353486668
  H         8.7726618264       -6.1558590424       34.1839940782
  O         1.8373534769       -1.9758931542       20.4255075911
  H         1.5214390351       -1.1971069356       20.9006937450
  H         1.7506688514       -1.7921846845       19.4727446290
  O        10.4108415854        3.9272221634       30.4469435739
  H         9.6382151693        4.4984031482       30.8040940826
  H        10.2846506068        3.5600239338       29.5633547127
  O        -0.1759914013       -6.0636357953       18.4175500844
  H        -0.2586619385       -5.6559721622       19.3504606852
  H        -0.6227851729       -6.8990178944       18.3546620791
  O         4.0575415748       -3.7567426837       21.2378261322
  H         3.2062674960       -3.2595212956       21.4536955000
  H         3.8351010789       -4.2002443304       20.4027325708
  O         5.9453797434       -6.6575692393       20.3626110883
  H         6.0891203698       -6.4338215923       21.2554233212
  H         5.0480340235       -7.0208233886       20.4058047448
  O        -2.4558722593        6.0392345013       24.0718996021
  H        -2.0946708744        5.1349503095       24.2014096554
  H        -3.1675115476        6.1918438297       24.7013097538
  O        -6.1761802331       -2.3890469296       32.7504964694
  H        -5.7180571102       -1.6984912872       33.2879042937
  H        -7.0933548438       -2.6206165825       33.0780654707
  O         2.5594813787       -5.1782759786       24.4078944857
  H         3.4725614855       -5.1372278785       24.5329523887
  H         2.2501865169       -4.2699249046       24.3030989636
  O         2.6478836232       -0.2897068001       23.0410596966
  H         2.7098338015        0.3711747260       23.7674729918
  H         3.6256873338       -0.3661706663       22.7651322035
  O        15.4790871973        0.3562436542       27.3345521239
  H        15.7435935331        1.2136641919       26.9067892764
  H        16.1523002630       -0.2769350489       27.0154324573
  O         8.4139462808       -4.0710843119       19.3420056398
  H         8.6406205744       -3.7168135384       18.4479075640
  H         7.5597044876       -3.5498605790       19.5769058320
  O         6.5381569613        2.3030682577       30.2365984974
  H         6.4844063908        1.5560504464       29.6269731219
  H         5.8410335688        2.1910574448       30.8841350478
  O         4.2043719341       -1.8250805652       26.2455284882
  H         4.1091058851       -1.6916144003       25.2482294393
  H         3.3148708638       -2.2436150104       26.4542538164
  O         4.8249795840       -7.9906251264       28.5410574757
  H         4.0552799826       -7.4701154431       28.8662604259
  H         5.1124585786       -8.5330495790       29.2731955179
  O        11.0569224446        3.1441732210       15.4018388902
  H        10.9298903678        2.2691975041       14.9297710605
  H        11.1556700140        3.8953643454       14.8307933847
  O         1.3198121278        3.1910839408       28.5765298282
  H         0.2956672582        3.4167299617       28.5388697637
  H         1.7403640990        3.5927614874       29.3487885416
  O        10.9659840270       -0.5394239335       31.9726029849
  H        11.7613610345       -0.1443183790       32.4212968445
  H        10.7304007370       -1.2679920783       32.6079077862
  O         2.2430959170       -9.0899855398       18.9930273079
  H         2.4713659826       -8.3029361403       19.6046493526
  H         1.3601490817       -9.4183187500       19.2437312937
  O         0.8603487283       -0.2671420519       25.8341292412
  H         1.0695779851        0.6216018852       25.4875561007
  H         1.5329985963       -0.3355345686       26.5290133782
  O        10.8305484760       -4.8913499861       15.9417519760
  H        11.3707775212       -5.0614123799       16.7369449090
  H        11.0041139247       -3.9584500996       15.7866231385
  O         8.4426983984      -11.7605838206       32.3541907824
  H         8.0707223035      -11.4512697972       31.4515140867
  H         9.3743211302      -11.9303108916       32.1455544340
  O         6.7208082429       -4.8538720151       22.5282769762
  H         6.0860540797       -4.3520986093       22.0732379011
  H         7.5027265240       -4.2812220470       22.8027085617
  O         1.7161694421       -7.2991949367       22.9249984295
  H         2.4821732112       -7.7682144362       23.4020168679
  H         1.7421341722       -6.3986663781       23.3477109665
  O         0.3214543510      -11.6265270765       29.8031697255
  H         0.1058739962      -11.0259091107       30.5446866398
  H         0.7619342050      -10.9743406095       29.1755745812
  O        -1.0227199792       -2.5266541682       27.4961948853
  H        -1.1201655753       -1.9059424488       28.2401630050
  H        -0.0598612790       -2.6416616699       27.3610576785
  O        -2.1689438650       -2.7786502730       33.3945290229
  H        -2.9178228501       -3.1761886826       33.0239054434
  H        -1.5284043237       -3.4750717370       33.5037772160
  O         8.0504657078       -8.8652990167       21.5562300455
  H         8.3288673905       -8.0832552070       21.0255619284
  H         7.8678161401       -9.5873867403       20.9416424608
  O        -0.0186066734        0.2998217920       21.7975790772
  H        -0.5973034835        0.2287454457       22.5674688907
  H         0.8881582442        0.2533989987       22.0717234887
  O        11.5205930620       -4.2892933166       22.9080287337
  H        11.0367476606       -5.0245030133       23.3084294642
  H        11.9989664488       -3.8887273064       23.7029314092
  O        11.9453708099        2.2325564247       19.4347187334
  H        11.3521952247        2.8815143124       18.9400050996
  H        11.4130989470        2.0687292730       20.2419642142
  O         8.0251921989       -7.2551720511       26.3672512927
  H         8.0758842980       -6.8430257849       27.2230773274
  H         7.3186037891       -6.7504448639       25.9025820915
  O         8.7358827822       -3.0113580709       23.4998944545
  H         9.6297819059       -2.9690214104       23.1237025274
  H         8.7399060380       -3.2550767195       24.4693927579
  O         4.7844004202       -4.7494845645       30.9429348697
  H         5.4502041998       -4.3506378403       30.3592732514
  H         5.2666184111       -5.4505237668       31.3826995930
  O        12.0757858972       -8.7627660657       23.6529268892
  H        12.8606334999       -8.2630505185       23.2901440200
  H        11.5604174059       -9.1134750486       22.9260522283
  O        -4.5788698828        0.2549194822       15.7868814684
  H        -5.0927873036       -0.5544923281       15.9933543996
  H        -3.7410158342        0.1985907373       16.3122936411
  O         7.9893600174        4.4879650278       31.3002524399
  H         7.3837382791        4.8994506476       31.9758150390
  H         7.4272859313        3.7019475709       31.0533076009
  O         7.5628689061       -0.7722485561       34.4168455002
  H         8.1169458230       -1.4574105274       34.8861030271
  H         8.0796825079       -0.1920584043       33.7870731432
  O         5.3959799011        2.9913679317       22.2966501206
  H         6.3137521568        3.1700854240       22.4891832974
  H         4.8676704076        3.3597277962       23.0736349148
  O        10.4570899718        2.5707210795       21.6631671834
  H        10.4724872796        1.6530299330       21.8951187691
  H         9.5629786068        2.9839377366       21.8132802124
  O        17.5385006549        0.1448416310       22.4512229642
  H        17.7012954799        1.0651042151       22.7761469687
  H        18.4405703114       -0.3191855192       22.4630590400
  O        10.4984009107        0.3648989583       23.6427969416
  H        10.0680305709       -0.4952378157       23.8664897739
  H        10.6393716188        0.8606141114       24.5122460483
  O        10.5459495115       -0.5859732951       29.3109469698
  H        10.6542085568       -1.0178707336       30.1871379755
  H        11.3642128635       -0.0130332075       29.2979653031
  O         1.5555383050        2.0753673279       24.6993039322
  H         1.9486389979        2.8027540738       25.1632869280
  H         0.7654809636        2.5089775462       24.2871176033
  O        -1.6848199564        0.6263866261       26.7786282069
  H        -0.7613521255        0.3125178611       26.5801977325
  H        -2.0294601398       -0.1884328812       27.1881937391
  O        13.1563265832       -4.6068710354       20.5275223281
  H        12.6036619177       -4.5823483629       21.3740064111
  H        13.2658735605       -3.6311268238       20.4320828264
  O         5.2624715837       -4.4270116712       26.7379265807
  H         5.0800146017       -3.5350221443       26.3145969204
  H         4.3951103175       -4.7570738892       27.0632673633
  O         1.4454801241       -2.7013330412       24.2260824538
  H         1.8127177964       -2.0371536650       23.5268671425
  H         1.1056814103       -2.0822748103       24.9026328240
  O         4.5772764354        1.8890573278       32.0877137926
  H         4.6287369637        2.0155003291       33.0942355340
  H         3.6605662030        2.1253277426       31.8310499694
  O         3.8811641001        4.0867486262       24.1522359951
  H         4.3452066860        4.8537879003       24.5768612765
  H         3.7289624716        3.4963066973       24.9558645353
  O         2.6007036939       -6.0237415486       29.9220524198
  H         3.2804512574       -5.5656417411       30.3877719705
  H         1.7797690600       -5.9749906244       30.4010075253
  O         1.9470328183       -2.7547668413       27.5623723044
  H         2.0486791857       -3.7309225922       27.6109095430
  H         2.2411059701       -2.4181460461       28.4924942390
  O        -0.7948807659       -6.7964595951       26.7762734172
  H        -1.1692424772       -6.1460560059       27.4652821065
  H        -1.4209434203       -6.5382919106       26.0682800351
  O         6.9017043007        2.5527422321       26.4610948078
  H         7.3319236501        2.1669384993       27.2964457179
  H         7.2444991632        3.4793127854       26.3142591692
  O         6.5216263130       -3.2858857100       29.1086787846
  H         6.0327847293       -3.4730469929       28.2656941168
  H         7.1512933851       -4.0527513738       29.0492358648
  O        14.2052450681       -7.6709969557       13.6188202595
  H        13.3106628793       -7.1907288544       13.5243444087
  H        14.1084280852       -8.1869253646       14.4802119366
  O         2.9026999642       -5.3730823120       14.9881996057
  H         2.7707147486       -5.5863440974       15.9326321793
  H         2.4289661064       -6.0118628534       14.4036939793
  O         2.8942865175       -6.8461148209       20.4256483461
  H         2.7481460688       -6.9992254566       21.4267231869
  H         2.2195280942       -6.1202021974       20.2488854308
  N         8.5984345019       -3.5655195426       26.2864564547
  H         8.7083190980       -4.3679495467       26.9330907829
  H         9.3243861295       -2.9265971072       26.6692198644
  H         7.7398380420       -3.1823280273       26.5562334569
