     193
 CELL 12.4294 12.4294 12.4294 90.0 90.0 90.0 i =    86920, time =    43460.000, E =     -1096.5227414507
  O         6.4913462307       -1.8191514438       42.8160180370
  H         6.0825489173       -1.7422144757       41.9107959592
  H         5.8299796604       -1.5504740206       43.4091213096
  O         7.1133341057       -7.6765427024       40.5503840231
  H         7.0657053250       -8.5063431270       41.0359036853
  H         7.8304798358       -7.2089660588       41.0750276826
  O        11.7647616538       -2.4241006591       42.0318923920
  H        12.7243295134       -2.6252591932       41.7058309024
  H        11.6438982064       -3.0669123193       42.8081771592
  O         8.4310596302        0.3398169346       42.1124130145
  H         7.8616430989       -0.4541171189       42.3096155479
  H         7.8346167033        1.1347824839       42.2256492740
  O        -2.5902240552       -5.3778968840       38.2411552023
  H        -2.3955709981       -4.7444994789       39.0142573380
  H        -2.4005810413       -4.8668639994       37.4170557021
  O        15.1438822861       -2.8658082932       49.5878120923
  H        15.7660029122       -2.4086213948       48.9009458963
  H        15.2178151898       -3.8943659566       49.4722004744
  O         6.5140157078       -1.3910845524       34.1677489524
  H         7.3646163468       -1.3958277145       34.5758523061
  H         6.3207159493       -2.2766540530       33.7514744049
  O        14.6244056173        3.8880084427       43.7988587733
  H        14.4983162703        4.7256387789       44.3280759624
  H        14.4500751839        4.0638666553       42.7855617696
  O         6.0387446506       -8.0918589238       32.2743715153
  H         5.4761379547       -7.4655692721       31.6885587923
  H         5.3098497516       -8.6485147318       32.7562945060
  O        11.2627196450       -3.3712607793       32.8825081769
  H        10.9164386222       -2.4883451060       33.0689508991
  H        10.5188201706       -3.9104110718       33.1854522101
  O        10.8953493619       -4.1964895435       35.9522517692
  H        11.5777955398       -4.7794029997       35.5565830504
  H        10.2841547864       -3.8645818199       35.2384877244
  O         2.7319847961        6.8836403161       37.0795220221
  H         3.6432937332        6.5701059457       36.7920149087
  H         2.1174439728        6.3929376680       36.5223613340
  O        -1.4003985919       -0.5933043363       46.0407308563
  H        -1.2657364563       -0.4035429456       45.0041550960
  H        -0.6232199603       -0.1910297834       46.5092172596
  O         8.4342768721       -2.3368235939       38.4250510778
  H         8.9517476270       -2.4776204804       37.6043653670
  H         7.8471235928       -1.5227250077       38.3924414752
  O         7.2800038617        2.5848451688       37.6529607751
  H         6.6577600903        3.3437480842       37.5280280716
  H         8.2221026775        2.7263637044       37.4256467533
  O        17.7333268375       -0.7837665024       40.4578425199
  H        17.3082518299       -0.1977946161       41.0862351118
  H        16.8891711049       -1.1895542773       39.9642317085
  O        16.4230258171       -5.1235306706       33.6642749445
  H        15.7103088671       -4.4745016252       33.7675169553
  H        16.5890690380       -5.3209986386       34.6019619862
  O        10.2702990390        3.0294895723       43.8106267580
  H         9.9825369986        3.1154845111       42.8486955310
  H         9.4941868307        2.6580159917       44.2587383350
  O         6.9001984496       -0.1181777094       38.1496530242
  H         7.0063128158        0.8176098789       38.0003953318
  H         6.3009573461       -0.0998165791       38.8814882405
  O        10.8492638124       -6.8750585820       44.2301862326
  H        10.3488429406       -6.3684142334       44.9312871425
  H        10.5247345502       -7.7858626078       44.3006949442
  O        14.0227421832        4.4019508685       28.4500529823
  H        13.8388954577        3.4969969685       28.0240116182
  H        13.5911157264        5.1532318455       28.0128592104
  O         4.2123565977        5.6522766926       40.8620215912
  H         4.7180825211        5.5936064810       40.0401803411
  H         3.2742516983        5.3086280535       40.6808515235
  O        14.0535009301        0.3816461793       42.8524761796
  H        13.4362387858        0.8417166730       43.4950724805
  H        14.4111969627       -0.3652996645       43.3702224646
  O         6.5210223575      -10.2271191240       30.5059644022
  H         6.5258126885       -9.4807354284       31.1632462975
  H         6.1782807390      -10.9975869990       31.0324125458
  O         4.0584992272        2.2630143030       38.8611232201
  H         4.5320956196        3.0877629819       38.7008968808
  H         4.3487121252        1.9438178144       39.7242295351
  O        14.0654103697       -3.3463910424       28.5068716946
  H        14.6597562465       -3.7630630691       29.1862141903
  H        14.5700722182       -2.6250548985       28.0485584660
  O        12.2432456191       -9.3620085951       47.2671294728
  H        12.1250867205       -9.9563176262       46.5184228721
  H        11.8569502390       -9.8574474910       48.0798803245
  O        14.1497187764       -3.2380305299       34.0114790684
  H        13.3016212635       -3.6914355662       33.7730668613
  H        13.9588925906       -2.8774485290       34.9714601058
  O         7.2411474249       -5.2367785002       38.2241776798
  H         8.1694519559       -5.5580392093       38.3439780631
  H         7.1969501116       -4.4475974225       38.7768832073
  O         3.9709773314      -10.8301780271       41.8337149172
  H         3.1022522240      -11.1886148729       42.2441687567
  H         4.5084402059      -10.2919550056       42.4716169497
  O         3.0287103244       -1.5142506349       39.4222901044
  H         2.3274991103       -0.9384588537       39.8193135719
  H         2.7837396252       -2.0367519630       38.6245456102
  O         3.0143372297       -1.5945699487       44.2971267280
  H         3.8013569968       -1.0382646919       44.6017247779
  H         2.5506079506       -1.9087950343       45.0961902527
  O        13.0249122299       -6.0352491627       34.8011782783
  H        13.0111221140       -6.0149059773       33.7764744788
  H        12.4704467537       -6.8123663931       35.0331521771
  O         4.9941109580        0.1881103863       32.3512453810
  H         5.7931198282       -0.1185976281       32.8527499330
  H         4.6462276663        1.0592134481       32.7042672905
  O        17.1275779760       -1.2666442597       36.1661527645
  H        17.7861088329       -1.3068025298       35.3840197515
  H        17.7653961626       -1.1446398364       36.8938701941
  O        16.3770575106        2.6253001484       32.8832210713
  H        15.7600852244        2.9218900708       32.1998660761
  H        15.8244551240        2.7770303848       33.7341488186
  O        11.3162254999       -7.4739048802       38.7285118627
  H        12.0464814930       -6.9893723754       39.1379839793
  H        10.6426090193       -6.8065981919       38.5092898725
  O        12.3274591326       -0.0694488065       36.1776494651
  H        13.2457835440        0.1587987885       35.9813200384
  H        12.3718053005       -0.8887273039       36.8807765841
  O        13.2980490078       -5.6621768932       44.4680516259
  H        13.8004262510       -4.9959130649       43.9646838705
  H        12.6475231962       -6.1035356777       43.9352118084
  O        17.8325374703       -6.0840028478       36.2038871884
  H        18.4862466427       -5.6209934602       36.8416937637
  H        18.4471073186       -6.3790048383       35.4590622952
  O        -2.0821663313        0.5937181590       27.5846966051
  H        -2.8590226396        0.3480179283       28.1630479592
  H        -1.2874276727        0.3095590349       28.1121233209
  O        12.5978759363        1.8769262907       44.5026136168
  H        13.2866432387        2.6427492489       44.3988429757
  H        11.8668827640        2.1851351326       43.9622775831
  O         9.8953002950        0.2532437235       49.6429133529
  H        10.7384512676        0.2863384095       49.1028050009
  H        10.0553465197       -0.0455092736       50.5501809411
  O         9.1518105028        3.2773019175       35.1636478620
  H         8.7172914563        2.6312530519       34.5877497283
  H        10.1010048460        3.3044953165       35.0094687549
  O        15.0243738624        3.0172397243       35.0202807609
  H        15.0466652277        2.1293396328       35.4496390855
  H        14.0858840509        3.1972923792       34.8906994331
  O        21.5081328371       -1.5710679862       35.5945339506
  H        21.6548504737       -0.9116631246       36.2552268508
  H        22.2049523124       -1.3920596886       34.9831032714
  O        13.7994737596        2.1977277286       39.3388105442
  H        13.1499700803        2.3777642772       38.5834361061
  H        14.6923429992        2.3972240306       39.0307927574
  O        15.4477873363       -4.3434810487       42.9665328650
  H        16.2534059854       -4.9565156720       43.0590975393
  H        15.7188481884       -3.5307590413       43.4032092435
  O         5.2938563836        4.7096784976       38.3944534121
  H         6.1188034616        5.0921556345       38.8473322780
  H         5.3706843436        5.1672840687       37.5237603540
  O         0.6892965054        0.0035990023       40.2595292001
  H         0.8742800867        0.8724605351       39.7871866476
  H         1.0123472819        0.1534150203       41.1968592557
  O        18.1024021755       -3.3533131191       32.6388898025
  H        17.6313045647       -4.1164911668       32.9800578875
  H        18.8462552762       -3.8356673014       32.2342280011
  O         9.9742014661       -3.5942361062       40.3531988762
  H         9.4637714186       -3.0189795772       39.7361676335
  H        10.5313612177       -3.0635952302       40.9155128389
  O         2.9525445027        0.9371289960       36.7095977468
  H         3.4843071655        1.2548244527       37.5093666061
  H         3.4547608285        0.1485631965       36.3709987574
  O         8.6502579392        1.0939565903       45.9394226187
  H         9.3983813681        0.4646532398       46.1030950877
  H         7.9414190608        0.5004980163       45.7261280496
  O        11.6967916412        2.7669534272       37.7660602603
  H        11.0774498768        2.1443892985       38.0970510748
  H        11.4925035598        3.6173441151       38.1784242128
  O         8.8159779469       -4.8796569653       45.9490113607
  H         8.3326771915       -4.7439722312       45.0931353978
  H         8.2481360339       -5.5914401156       46.4288691415
  O         5.2543853927       -6.0402434320       43.1456875587
  H         5.9846242465       -5.3725095290       43.0249920930
  H         4.9917774123       -6.4180003806       42.1988630543
  O         1.1023951082       -5.6330481949       39.4405608840
  H         1.2275205005       -4.7231677261       39.8540207601
  H         1.7791603511       -5.6809007469       38.7903916925
  O         9.7125621984        3.1637681471       40.9459806840
  H        10.0071051589        2.3188684992       40.5214703690
  H         9.9950242438        3.8860221328       40.3099204366
  O        10.8917984983       -0.0978136866       43.2563839377
  H        11.2324098647       -0.9534499381       42.8442694553
  H         9.9639473508        0.0272960944       42.9569625493
  O        21.6303131150       -5.9739187195       29.4450151546
  H        21.9504616759       -5.2269457710       28.8742481171
  H        22.3880385980       -6.1411921758       30.0895977163
  O         7.4421095919       -4.4574521665       30.9151319307
  H         8.0057552700       -5.1261538683       30.3289093117
  H         7.2954000355       -3.5822164044       30.4172456118
  O         7.0203261045       -6.8560600400       34.2696982015
  H         7.6259711741       -7.4318922413       34.8208271506
  H         6.7427805705       -7.3087249511       33.4072314786
  N        12.3841706387       -2.0682621818       37.6772897100
  H        13.2507409468       -2.5225835413       37.5395049191
  H        12.2555972554       -1.7953591369       38.6897193721
  H        11.6629813213       -2.7162863171       37.3540366605
