     193
 CELL 12.4294 12.4294 12.4294 90.0 90.0 90.0 i =    70120, time =    35060.000, E =     -1096.5374835131
  O         3.6766400234       -2.0300427714       35.1480243744
  H         3.5605341476       -1.3052865786       34.4935736220
  H         3.3510132778       -1.6090749025       35.9816652383
  O         4.5430137631       -9.5904258284       30.7882418038
  H         5.4524266540       -9.9506921724       31.0202553053
  H         4.4951015964       -8.7501667263       31.3423259133
  O         7.8096118870       -4.4808387552       33.2447515478
  H         8.6566828891       -4.6385700845       32.8079471441
  H         7.4201489769       -5.4233879256       33.2065873202
  O         4.3128723910        0.1458929982       33.1056261818
  H         4.6164634753        0.5164094257       33.9519485597
  H         4.9900543291       -0.5111325769       32.8329548844
  O        -5.0244535258       -6.1092754484       29.1985675236
  H        -5.7630549003       -5.6583198163       29.6623535287
  H        -5.1332649384       -5.8871359936       28.2138679192
  O        11.8512196816       -4.7834557133       40.0995597408
  H        10.9778778786       -4.4110379157       39.9939961280
  H        11.6755892340       -5.5785474097       40.6340145164
  O         6.0415222665       -2.6658823598       23.8327206076
  H         5.2437472061       -2.4895702042       23.3217501507
  H         6.8263764161       -2.3896627512       23.2156528255
  O        11.8967734106        1.6542490481       35.0245355239
  H        11.0148378286        1.2389021194       35.3716433804
  H        11.7602315499        1.6897865860       34.0795479826
  O         0.0451709439       -8.0555037537       22.8105154820
  H         1.0218640376       -7.9024484734       22.8569771431
  H        -0.1699932276       -8.9727031342       22.6068268107
  O         6.4273972758       -3.6716912181       26.8790499497
  H         6.3860933819       -2.8200289137       26.3794257924
  H         6.9397363970       -4.3106312229       26.3504296609
  O         7.7862141591       -6.0764159834       26.5001309763
  H         8.5315106335       -6.7394264813       26.6628472385
  H         7.1339698456       -6.6604884303       26.0457544399
  O        -0.8241613786        5.2862042430       28.7216637538
  H         0.0624543876        4.9695988801       28.2995332988
  H        -1.4535696464        4.8674985558       28.0634125238
  O        -4.0339978176       -1.4908779143       34.8674973189
  H        -3.7607470897       -0.5653820634       35.2843710578
  H        -3.5750818970       -2.1520252512       35.4206513796
  O         3.7300761173       -4.1032054983       27.7052990557
  H         4.5964836670       -3.7836635996       27.3884839076
  H         3.4606278514       -3.4735941034       28.4841666169
  O         3.6851710590       -0.3261538377       27.2397008566
  H         3.3504476608        0.4192399684       27.7445849922
  H         4.4891225690       -0.0274946838       26.7914096158
  O        14.5327622823       -2.0141920519       32.0139684572
  H        14.5589449919       -1.2597595424       32.6702232368
  H        13.9067655180       -2.6555062476       32.3832392342
  O        11.1109376233       -6.6629225950       24.9779986171
  H        11.8226343814       -7.0115922638       24.3467394816
  H        10.4870038089       -6.2435755594       24.3779765006
  O         7.5254796136        2.3879498337       34.2657826742
  H         7.5898796678        2.3411785282       33.2496367738
  H         6.6934590414        2.0000566727       34.6380457360
  O         3.5225896803       -2.2472497368       29.7504720674
  H         3.5093474225       -1.4233464676       29.1683068888
  H         3.0107041256       -2.1508293806       30.5513385521
  O         6.6576108994       -6.9817821488       33.8554109054
  H         6.6565586580       -6.3660926322       34.6966056736
  H         6.8604411948       -7.8813995134       34.0309900510
  O        12.4552720097        2.5584660648       19.6624965532
  H        12.0690480058        2.1520848311       18.8432529805
  H        12.1015545126        3.4701656946       19.5732409940
  O         2.5408208853        2.3205151463       32.8036004909
  H         3.2214918333        2.0223055299       32.1810819192
  H         1.7430782756        2.4917872377       32.2558550183
  O        10.4918301762       -0.8040131365       33.2636856682
  H         9.6591650660       -1.0657870464       33.7757265146
  H        11.1835623958       -1.0218376171       33.8860585177
  O         3.7752839695       -9.4476132849       24.3278731562
  H         3.7263667125       -8.5595183708       23.9845253208
  H         2.7877773096       -9.8464108339       24.3754911527
  O         0.8177841128       -0.4100876365       29.8624378330
  H         1.4857844644        0.3377741747       29.7122978654
  H         1.0930466479       -0.9347209587       30.6292380401
  O        10.6662044003       -4.7059050844       19.7668076950
  H        11.2852805822       -4.6628649545       20.5719779788
  H        11.2218346461       -4.2954685920       19.0891084615
  O         8.5812048556      -10.3470000799       38.1337170699
  H         7.8039046518       -9.7700363728       38.0845287696
  H         8.3744475317      -10.9680067780       38.8724883055
  O        10.2004009376       -2.6722771469       24.3569426321
  H         9.8884463832       -3.5867273702       24.3392415612
  H        10.0332965509       -2.4075952710       25.3195394080
  O         3.4098786437       -6.7252941768       27.0119806385
  H         4.1315478677       -7.2060500891       27.5670858063
  H         3.5754807238       -5.7749850482       27.2763555715
  O         1.6004306842      -12.3879933306       33.9703931021
  H         0.6261051087      -12.2858733110       34.2037906541
  H         1.9262229686      -11.5093486112       33.6032741196
  O        -0.3462479156       -3.4315360071       29.9901416353
  H        -0.9995959488       -2.7544417540       30.0040596860
  H        -0.2317132214       -3.8156375743       29.1266029661
  O         0.1826428844       -2.2186330812       35.8578645131
  H         0.8417125840       -1.8959711970       36.5179729372
  H        -0.6093898727       -2.4626605974       36.3611085697
  O         9.8355219303       -7.9746523870       26.8524313927
  H        10.4127684087       -7.6113529786       26.1218767198
  H         9.5505560204       -8.8552924102       26.4408452682
  O         2.3820900557       -0.7820085996       24.7850931515
  H         2.5850218179       -0.5716022800       25.7546433933
  H         1.9917184216        0.0047015468       24.3671763329
  O        13.6393721981       -3.5554296433       26.1255874013
  H        13.0787685222       -4.2206918939       26.5624330921
  H        14.5510650382       -3.6541478146       26.5338615142
  O        13.7406430958        1.8695801621       24.4437724534
  H        13.1994777060        1.6359860428       23.6555582611
  H        13.1514635724        1.7013616510       25.2394039291
  O         8.8538566520       -8.6083862104       30.3041644540
  H         9.5478138112       -7.9775060751       30.8263768221
  H         8.3827332877       -7.9658724102       29.7944251644
  O         9.8574970175       -1.6462030261       26.9528912409
  H        10.6451528396       -1.4067240710       27.3984162855
  H         9.4212130453       -2.4172489446       27.5062751051
  O         9.2137864586       -5.0862650545       35.8090792130
  H         8.9332640908       -4.8220154808       34.9473517156
  H         8.3833519407       -5.3453311872       36.2549970713
  O        13.7809497140       -8.2524340297       27.6344860861
  H        14.5564987032       -7.6509423898       27.5653104153
  H        13.4978160650       -8.5534788006       26.7235031928
  O        -4.7930159981       -0.3506903522       17.7754344377
  H        -5.3349194292       -0.9144345473       18.3769418720
  H        -3.8297039481       -0.4997367037       18.0196699489
  O         9.3439525041        0.8813249474       35.8065219216
  H         8.9889688069        1.0776611952       36.7265753631
  H         8.8805697859        1.6004147615       35.3117872996
  O         7.7769636746        0.0440407743       39.9477968459
  H         8.5058763383       -0.6442765914       39.8077252032
  H         7.4506781976       -0.0922203106       40.8625758112
  O         6.3103820328        3.7712441335       25.9084943112
  H         5.4602442147        3.5438916406       25.4495298850
  H         6.1280822304        3.9345152179       26.8545408764
  O        12.0823857321        1.4465585410       26.8915474485
  H        12.3812916350        0.5293535384       27.1074039209
  H        11.1789050003        1.3693168928       26.5261015225
  O        18.2707282054       -0.2022881558       25.5245201097
  H        19.0087040951       -0.1928228635       26.1775256980
  H        18.3953006121       -1.0738328608       25.0548445156
  O        10.8799910631        1.7275563426       29.6862236147
  H        10.0357776215        2.3332062417       29.7206251604
  H        11.3158514427        1.9086043395       28.8692893001
  O        12.9039483242       -3.6908106947       33.5625430529
  H        13.5909448369       -4.3035065473       33.9532322990
  H        12.9335242439       -2.9993534485       34.2971248368
  O         2.5445207143        1.7361579349       29.1518493143
  H         3.2856580363        2.0990656624       29.8044230296
  H         2.1510318435        2.5562215752       28.7307362927
  O        -2.0805865527       -1.0486597718       30.5396340303
  H        -1.5641943526       -0.2290542847       30.2778563052
  H        -2.0719812941       -0.9748758321       31.5378136157
  O        14.5976855243       -4.5742739386       23.3769926178
  H        13.8400103650       -4.5698620727       23.9677368775
  H        14.7397681339       -3.5775565446       23.2794164757
  O         4.9562133495       -5.2052592296       30.3925816348
  H         4.6153984404       -4.5492124602       29.7297052601
  H         4.8897416095       -4.6931852644       31.2995181551
  O        -0.0329063254       -1.0785617085       27.5251970570
  H         0.3335180483       -1.0737453216       28.5000225927
  H         0.4849666481       -1.7062771498       27.0018408701
  O         5.3943799630        1.1564996817       35.4847891360
  H         5.7676126158        0.6970177295       36.2868707465
  H         4.6940265050        1.7729762897       35.8843191019
  O         5.2494425322        4.4846742455       28.6297980034
  H         5.7921286710        5.0760102929       29.1600237288
  H         4.7287352238        3.8401666868       29.2195859778
  O         6.4567871654       -5.5857590617       36.1884570017
  H         6.3506148269       -4.6068479442       36.1850642944
  H         5.6329133020       -5.9530431304       36.5624069898
  O         2.3868037964       -6.6795840507       33.6460135944
  H         3.3645177973       -6.6457620098       33.7450722783
  H         2.2460800174       -7.4949197938       33.0779131356
  O        -1.4570735561       -7.2508031705       31.3860187640
  H        -1.6214659384       -6.3063568466       31.5842822844
  H        -1.1168763961       -7.2917056025       30.4704515963
  O         7.1399965343        2.1129443291       31.5456837776
  H         7.3011521055        1.2317244447       31.0220389936
  H         7.7106735592        2.7983017164       31.1662604189
  O         6.6731849753       -1.5725186222       32.7335627759
  H         6.5202456645       -2.5533516734       32.7107972466
  H         7.5367917942       -1.4948210435       33.2227518408
  O        17.0018212663       -7.3989406413       19.6724363653
  H        17.1956883190       -6.5848962646       19.0754670450
  H        17.6351986824       -7.3386769656       20.4015578719
  O         4.3204717466       -4.0462052567       20.3945346920
  H         4.2789508459       -3.1882939326       20.8511978175
  H         3.3659042375       -4.3119381872       20.4074916824
  O         3.6558929933       -6.4346468831       24.3461797154
  H         3.3815167513       -6.6407223308       25.2457752435
  H         3.1832996942       -5.7238249391       23.8911097276
  N         8.8073173041       -3.0947137855       28.9360652443
  H         9.1235258214       -4.0319507614       29.0676031299
  H         9.0092000238       -2.5431825481       29.7771343683
  H         7.7792516406       -3.0328788258       28.9153794550
