     193
 CELL 12.4294 12.4294 12.4294 90.0 90.0 90.0 i =    82120, time =    41060.000, E =     -1096.5532373299
  O         7.0103275163       -1.3445881390       40.3579821346
  H         6.1943446618       -1.3751714694       39.8385625970
  H         6.7280178366       -0.8679962246       41.2061224928
  O         6.1524985478       -7.2070217819       38.0854416490
  H         6.9574536304       -7.7402812666       38.2192386022
  H         6.4144209199       -6.2895433608       37.9161345947
  O        10.8974035054       -3.3864659822       39.2846863373
  H        11.7315863153       -3.6699785016       38.8553259577
  H        10.6301217353       -2.5830904929       38.8147417369
  O         8.8541753268        0.3075527111       39.3529697537
  H         8.0341270313       -0.1915909102       39.7107279441
  H         8.4493057931        1.0604062552       38.9009847025
  O        -3.3182899185       -6.3698974436       35.3707223697
  H        -3.3929278319       -5.5289824631       35.8349537879
  H        -2.8112917038       -6.1315576881       34.5288136710
  O        16.2275754753       -3.3030287502       47.5643454609
  H        15.8007522818       -3.8461621253       46.8480579743
  H        17.1349909110       -3.6396376065       47.5839140456
  O         6.0504817570       -0.6384982306       30.5732307259
  H         5.1672924390       -0.2005450365       30.7568474398
  H         6.3744682436       -0.8069772633       31.4631935219
  O        12.8761929496        4.2158113769       41.3573044201
  H        12.7134372671        5.2794326339       41.4359797273
  H        13.3137113941        4.0304561885       40.4536907800
  O         4.3585284983       -7.5732800385       31.4262695257
  H         4.4664915531       -6.9112058658       30.7275636932
  H         3.6990982273       -8.2413696907       31.1083763850
  O         9.6019320034       -2.8190788748       30.6784151544
  H        10.0534283016       -2.3404334405       29.9476428107
  H         9.3264354906       -3.7207864797       30.3212113641
  O        10.3598622316       -5.5341392129       33.2733755733
  H        11.0541250955       -5.9353344677       32.6394727102
  H         9.5085565176       -5.4169581089       32.7696712360
  O         1.7477804153        5.1349719115       34.9463592601
  H         2.7011439161        5.3302555208       34.9321230799
  H         1.6132260276        4.2164514990       34.6353028508
  O        -1.3789153442        0.8125741960       43.4392250402
  H        -1.1813699834        1.1077089849       42.4909326367
  H        -1.1678100681       -0.1492415232       43.3463972939
  O         6.9636561669       -2.7064307038       34.9838902451
  H         7.3562932747       -2.4142450431       34.1362204648
  H         6.4737652269       -1.9918853984       35.5062544032
  O         7.1371862262        1.8027358692       36.2245132354
  H         6.3233941421        2.3171994656       36.0108549342
  H         7.8044602737        2.0661079799       35.4834349217
  O        17.1010423882       -1.4012956015       38.7768760622
  H        16.8092165771       -0.5103175450       39.0423231508
  H        16.2984664552       -1.8555626008       38.3526052364
  O        14.4739823150       -4.5322823133       32.7717540757
  H        13.7915514413       -3.8847183914       32.5420022608
  H        14.1202200948       -5.4532303539       32.6162670937
  O         9.2258363142        3.1156185658       40.5991443468
  H         8.8094049163        2.9500868276       39.7262037136
  H         8.5409520693        2.8325729405       41.2872125515
  O         5.7759836620       -0.8941384304       36.3960688740
  H         6.3799453577       -0.1254816796       36.4474121088
  H         5.4589485841       -1.0229122170       37.3510576901
  O         9.4603274730       -6.2182191690       40.2912301536
  H         9.1093564507       -5.7798256433       41.1014472516
  H         9.5445991245       -7.1272023833       40.6273168145
  O        14.6160977088        3.7355603744       26.6673000721
  H        14.8138922376        2.8736108052       26.2945080575
  H        14.2403413296        4.2867325779       25.9278387036
  O         4.5005170041        4.6787256793       40.2536357770
  H         4.9916574894        4.9249056630       39.4434799668
  H         3.5681542915        4.3569446480       39.9270395635
  O        13.4517460807        0.2297677819       39.9949560296
  H        12.8331771690        0.8864448896       40.4581893832
  H        13.6137947260       -0.5606828334       40.6238370480
  O         5.4689816957      -10.0913716447       28.9930836244
  H         5.2693524215       -9.1997140359       28.5542980309
  H         5.1845522035      -10.0851172224       29.9398836041
  O         2.8519193674        1.7206967498       36.8259787355
  H         3.5336213712        2.4278473208       36.6261355566
  H         3.2521542717        1.2923959553       37.5963858531
  O        13.4815125942       -4.4159846649       26.0170958463
  H        13.8687928057       -4.4961258323       26.9461514565
  H        14.0546485722       -3.7023661697       25.5867798433
  O        11.5865902188       -9.2563945605       45.0238813913
  H        11.3221639955      -10.0928774613       44.5067594144
  H        11.0397310620       -9.4460021714       45.8109982792
  O        12.2701452571       -2.0267295234       31.4096638405
  H        11.4310396559       -2.5857025089       31.3945873703
  H        12.2930171672       -1.6763293388       32.3180298234
  O         6.3646777233       -5.3505006781       34.8324854618
  H         6.9483067475       -5.8871966861       35.3571512812
  H         6.7001352884       -4.4078968127       34.9482517404
  O         3.6781163246      -11.3645502482       39.5293552457
  H         2.7309641608      -11.4760614436       39.8986550765
  H         4.2452205831      -10.9264173788       40.2012164676
  O         2.5341935427       -2.4670143936       37.2590261394
  H         1.9335515289       -1.7135865547       37.0868573215
  H         3.0544386642       -2.6988970381       36.4748302033
  O         1.8130137796       -1.6977686792       41.9909938659
  H         2.4537389531       -1.2309828946       42.6325646962
  H         1.0425590088       -1.8109875561       42.6233940888
  O        12.3857344586       -6.3278483066       31.7563857568
  H        12.2018112489       -5.9523755615       30.8027590919
  H        12.5647142742       -7.2819320110       31.7125358735
  O         3.1780783795        0.5228870104       30.9331097641
  H         3.2932638663        0.3033060022       31.8320227552
  H         2.6359254375        1.3504757160       30.8939181732
  O        17.0030068729       -0.7472937589       33.6619774822
  H        16.7909894015       -1.6673815169       33.3550037804
  H        17.0206774855       -0.7639193999       34.6614425235
  O        14.6990653502        3.0362466898       30.8342278004
  H        13.9185100861        3.3524914034       30.2703410406
  H        14.3954029799        3.0146004153       31.7744351663
  O        10.5729604038       -8.1721995475       36.9979658851
  H        11.4159639544       -7.7372207446       37.2586009750
  H        10.1733479638       -7.5032372973       36.4235939942
  O        12.2656806280       -1.1833535115       33.8516022063
  H        13.1123895467       -0.6821182731       34.0216081132
  H        12.3002538306       -2.0270579901       34.3835343134
  O        11.8872853500       -5.3463764366       41.5572859492
  H        12.7409754669       -4.8444248777       41.3451059763
  H        11.1273180019       -5.0112918328       40.9729656970
  O        16.8060456571       -7.1858031695       34.0602351648
  H        17.3339535528       -6.3909614194       34.1298633570
  H        16.7184697982       -7.3019546445       33.0510572644
  O        -2.2374136372       -1.4179086965       25.0098305681
  H        -2.6008410716       -0.6546134865       25.5062883773
  H        -1.2565756782       -1.1266545164       24.9517763352
  O        11.7361385559        1.9759206973       41.0246127139
  H        11.9404143193        2.9299789284       41.3052854267
  H        10.7623121517        1.9985000813       40.8623998933
  O         9.7264097534       -0.0611241676       46.8869922857
  H        10.6534712127       -0.4674900154       46.7561983237
  H         9.4277715888       -0.3804726796       47.7768467568
  O         7.8975012718        3.7186924083       32.7813366736
  H         8.3339322865        3.1135980005       32.1802055902
  H         8.4462692865        3.6317803547       33.6029181921
  O        14.0355390663        2.8813827011       33.7412966082
  H        14.0695685262        1.9835115771       34.1124863086
  H        13.1095055121        3.0848515394       33.4235177261
  O        20.4465563979       -1.6036985224       32.8830145657
  H        20.8670714390       -0.7955413120       33.1819587151
  H        20.7964130518       -1.7951146593       31.9279159266
  O        12.6342082794        2.0758615090       36.5181953589
  H        12.1203302008        2.4849286856       37.2387403507
  H        13.5915393393        2.3332402657       36.6076631138
  O        14.4865823132       -4.3240374753       41.1322167531
  H        15.2818436097       -4.8214654661       41.3710198145
  H        14.5694075433       -3.3371462881       41.5165099840
  O         4.8950147435        3.5098218921       36.2221333656
  H         5.0885926796        4.2570339894       36.8262173296
  H         4.8546059107        3.9383842023       35.3108453015
  O         0.3415531480       -0.4571034543       37.4239506508
  H         0.4701371587        0.2441914036       36.7048598795
  H         0.7093284158       -0.1994129608       38.3381433771
  O        16.7201413899       -2.9672208225       31.9479954642
  H        15.8103774887       -3.3057829671       31.8430507154
  H        17.0831553753       -2.8045221295       31.0198491473
  O         9.0674788123       -3.5178355804       36.5362921441
  H         8.3528951069       -3.1531575291       35.9135172406
  H         9.5633979133       -2.7197588696       36.8278633905
  O         2.1166734133        0.4513705004       34.4366961071
  H         2.5516136185        0.6607778642       35.2996036650
  H         2.8525149904       -0.0569743375       33.9518477477
  O         8.1867956022        1.9023286323       43.0767268303
  H         8.8058207061        1.1708383117       43.1959655009
  H         7.3008244050        1.4569640318       42.9801431939
  O         9.6507439390        2.4975653529       34.7757732226
  H         9.7671060140        1.5224215169       34.8295186747
  H        10.2325895782        2.9327081192       35.5222160837
  O         8.3736513183       -5.0764858953       42.3470860018
  H         7.6729644414       -4.5058442268       42.0607608465
  H         8.0159344383       -5.3499265743       43.2585641139
  O         4.4137347168       -5.6928965382       41.8342894221
  H         5.1837163210       -5.0811513220       41.5405776814
  H         4.5330061182       -6.4658175781       41.1905802013
  O         0.8053208434       -7.0516271783       37.2661796188
  H         0.7730331399       -6.0997233352       37.4699481255
  H         1.1868207089       -7.1523995070       36.2788987545
  O         8.1253999659        3.3593933065       38.0870167998
  H         7.8709410503        2.7277938108       37.3994633321
  H         8.9813668830        3.8208427999       37.8787898109
  O        10.7754213498       -1.1728916782       41.0127401260
  H        10.9691480998       -1.8571144912       40.3785317071
  H        10.1177803491       -0.5116945030       40.6378419747
  O        20.4176838378       -4.8884908900       26.1480022165
  H        21.0584982304       -4.4079807276       25.6016438032
  H        20.9984458842       -5.4557064772       26.7455030075
  O         6.6401301194       -4.0731353271       28.3532698026
  H         7.1442202978       -4.3241241680       27.5210310658
  H         6.3104314412       -3.1516423284       28.2409748709
  O         7.7391571616       -5.8986606739       32.3272953044
  H         7.7626609592       -6.8852579082       32.3440601804
  H         7.1384291191       -5.6322719378       33.0272888892
  N        12.1761571719       -3.6493536311       35.3387606673
  H        11.9873169647       -4.2609424760       34.5613225836
  H        12.9418904213       -3.9669138909       35.9391811600
  H        11.3255680873       -3.7741163286       35.8845790628
