     193
 CELL 12.4294 12.4294 12.4294 90.0 90.0 90.0 i =    33320, time =    16660.000, E =     -1096.5245010723
  O        -3.4571885438        0.6520578602       14.5210441362
  H        -3.1656422617        0.2809185876       13.6427245111
  H        -4.2935394371        1.1095180080       14.3330465500
  O         0.1400574278       -7.4437265213       10.2177116968
  H         0.8678319315       -7.9947995212       10.5433574049
  H         0.0354317285       -6.8720244319       11.0697173200
  O        -0.1063861224       -6.1612200968       12.8029510134
  H         0.3682869360       -6.6524278475       13.5026669125
  H        -1.0404516739       -6.4275926242       12.8309564423
  O        -2.6056927258       -0.0437074965       12.0011996145
  H        -1.6836127583        0.2298116615       11.6840420114
  H        -2.7370940853       -0.8755263913       11.5115603468
  O       -10.4035226453       -3.9218416522        7.7274772262
  H       -11.3324718198       -3.7339788652        7.8789715976
  H       -10.2957952073       -3.3204560041        6.9306473028
  O         3.8528286882       -5.5816897835       17.0291046337
  H         3.5816249525       -5.2470101416       16.1061403836
  H         3.1577512669       -6.2558978266       17.2574104317
  O        -3.3987764775       -0.7579200893        4.4124154662
  H        -4.0661081249       -0.4856450192        5.0059021388
  H        -3.5361525154       -0.2515778586        3.5819530981
  O         3.8713948523        4.0788757300       14.2259530730
  H         2.9270545407        4.4059781417       14.4207694780
  H         4.0052548525        3.6689750352       13.3720847235
  O        -5.3744242248       -8.4386988501        0.8891865737
  H        -4.9867356009       -8.0013839854        1.7321043387
  H        -5.8928177163       -7.7298304081        0.4929521748
  O        -0.6658067474       -1.3694200430        4.2068447749
  H        -1.6396346336       -1.2179685840        4.3038857804
  H        -0.7474702885       -1.9740804890        3.4123262162
  O         0.8611445343       -4.9300741512        3.5584544685
  H         1.1840944708       -4.2315662213        4.1843493840
  H         0.3169613560       -5.4660672424        4.1467630885
  O       -10.1319883557        4.6710577137        5.4726007190
  H        -9.5363661613        3.9787566872        5.9526490527
  H       -10.6708412998        5.0390457913        6.1506508901
  O       -11.8952815204       -2.0367841970       12.7948107595
  H       -11.4511424078       -1.2059131303       13.1378927579
  H       -12.2922015921       -1.6952015171       11.9275983865
  O        -1.3391797917       -3.3797672573        6.3772252357
  H        -0.9166636832       -2.8525565280        5.7754292945
  H        -2.2626232912       -3.0015544148        6.4102807737
  O        -1.4641250858        0.9764230982        8.1246104916
  H        -1.4648396241        1.8879657497        8.5569746635
  H        -0.9064692636        1.0023084569        7.3066052449
  O         7.2046631807       -0.2656636820       10.0157521183
  H         7.6633676689       -0.3992038350        9.1529345628
  H         7.5997985677       -0.9848168194       10.5116096970
  O         3.7776403053       -4.2116394543        2.0199310335
  H         4.4214355551       -4.8403789836        1.5872189070
  H         2.9828782296       -4.1648066347        1.4464015502
  O        -0.2760443014        1.7178222166       12.4568409449
  H         0.3944669173        1.2823298822       13.0744258016
  H        -0.9390599559        2.1968694725       13.0524604969
  O        -0.0888218016       -1.0098920173       10.0429241284
  H        -0.6008287704       -0.3628667779        9.5686140992
  H         0.8553920939       -0.6504583041        9.8470487540
  O        -2.7802636716       -6.7080871941       12.8931092394
  H        -3.1496287906       -5.9994440573       13.4217130625
  H        -2.9939890651       -7.5322670248       13.3988719574
  O         4.2033078364        3.3804786048       -0.9028147640
  H         5.0952136162        3.0520463991       -1.2744910858
  H         3.9994251135        4.2964285184       -1.2701996135
  O        -3.3603340269        2.4764502437       11.5269255840
  H        -3.0912501175        1.5294789189       11.5634572826
  H        -3.4314937192        2.7606777414       12.4162679995
  O         4.4562905087       -0.3187415660       13.3301419420
  H         5.2480979763        0.3562680593       13.3356077757
  H         4.7288123315       -1.0534474168       13.9603874404
  O        -4.8982765978       -7.7837271796        3.5983359746
  H        -5.2977733920       -6.9333429937        4.0676414372
  H        -4.3042650627       -8.2016032020        4.2040195953
  O        -5.6576079935        2.4055727704        7.6848813426
  H        -6.4527176322        2.6212158336        7.1901272548
  H        -5.6886701188        2.8903686594        8.5697187911
  O         5.1123328647       -6.2932860761        0.5845458890
  H         4.6845117151       -6.8938502486        1.2347246690
  H         4.6099387164       -6.4372243276       -0.2874820467
  O         1.6879636828      -12.1359199133       13.9029157221
  H         1.5563407324      -12.4089494679       14.8227542453
  H         2.7177158499      -12.1760379562       13.7621016042
  O         1.5421286487       -2.8302180038        5.0233448330
  H         0.8980043358       -2.1313719155        4.7318787324
  H         2.4336296491       -2.4033864556        5.1206856053
  O        -5.3920634982       -5.7055998817        6.9352324206
  H        -5.0438200892       -4.9176535075        7.3291130857
  H        -4.6206485586       -6.3518128373        6.9046053302
  O        -5.9399793230      -10.9188898570       14.3595655701
  H        -6.4244020111      -10.7464432031       15.1841359143
  H        -5.9805474753      -10.0446593796       13.9549429693
  O        -4.5960132016       -3.9094374033        9.3889085363
  H        -4.1335579484       -3.3100025751       10.0261812475
  H        -5.4927331469       -3.9541773482        9.8611323332
  O        -7.4271561084       -2.0627517330       15.2386463861
  H        -7.9700716945       -2.8080040162       14.9007754016
  H        -6.5133532343       -2.5131139430       15.1945452979
  O        -0.4002165611       -8.7253788060        4.0930052851
  H        -0.8564619964       -8.0483477316        4.5937079787
  H        -0.1587470282       -9.5749710133        4.6420244866
  O        -4.1206907732        0.1097533636        7.3456934826
  H        -4.4894402097        1.0054367940        7.3892052204
  H        -3.1402144473        0.3013242422        7.4689327038
  O         6.3878472287       -5.5638424562        4.4164695324
  H         5.3283733968       -5.6429811241        4.5113760444
  H         6.6301391003       -5.4499798883        5.3966415143
  O         5.2717616964        2.9768760047        3.8678941336
  H         4.7456003647        3.5125641029        3.1911116183
  H         6.0646865903        3.6154385195        4.0941192929
  O         2.2264915296       -4.6560444739       12.2777038263
  H         1.2946183165       -4.8645615491       12.4426668079
  H         2.2306403173       -3.7998558691       11.7836673744
  O         3.8442553340       -1.7425762829        5.4621600980
  H         4.4920785077       -1.9147439229        4.7067523132
  H         4.3703683482       -2.0485815756        6.2906770096
  O        -0.7610471420       -3.1531452580       14.5941737571
  H        -0.3433729069       -2.8273023750       13.6850387578
  H        -0.1868382685       -3.9028366257       14.8062160873
  O         4.6946800488       -6.7361217009        8.0475262441
  H         5.6002317555       -6.5044736172        7.7801192114
  H         4.4176609992       -7.5551313702        7.5626414895
  O        -6.6911655150       -3.7916885644       -1.2107074230
  H        -7.6076189701       -4.0131474945       -1.5371493683
  H        -6.4279827303       -4.4363951316       -0.4881755093
  O         1.4169494110        5.2038253879       14.5657326468
  H         1.4893738031        6.1351181210       15.0288755973
  H         0.9870966818        4.7358664987       15.3386610853
  O        -0.1177438757        1.1709462642       17.8868573795
  H        -0.2091779452        0.4184097625       17.1973353181
  H         0.8423893931        1.1908627583       18.1787400019
  O        -3.3454912684        4.8640487911        6.8505416367
  H        -2.5662041689        5.5040754343        6.7169580639
  H        -3.1190214017        4.4335045224        7.6586103963
  O         4.1680404321        3.1002874342        6.2685126357
  H         3.8287783622        2.1768514196        6.4907066310
  H         4.5664115657        3.1179303744        5.3366014279
  O         8.9684246552        2.6440864038        4.9654483915
  H         8.7669835493        3.0139964343        5.8836791793
  H         9.9079818862        2.4344161015        4.9851065232
  O         2.5323138719        0.4969786902        6.4372711158
  H         3.0064221796       -0.3364939161        6.1343562469
  H         2.2942337986        0.3904388088        7.3486052879
  O         4.4335761705       -0.8398975817       10.7154873118
  H         4.5337842305       -0.9005668480       11.7624056621
  H         5.2489621620       -0.4918667778       10.3152467788
  O        -1.8818449254        3.8557899306        9.1597953640
  H        -1.1284301971        4.1477951006        9.7661062296
  H        -2.5137976405        3.5040045955        9.8227947026
  O       -10.2176721397        0.1751556918        9.3386504108
  H        -9.3930346389       -0.0449009516        9.7854499763
  H       -10.5126552893        1.0225973463        9.8027411942
  O         7.5352575841       -3.3468447089        3.1515379621
  H         7.2256193740       -4.1897327458        3.6186361063
  H         7.8496978170       -2.8421047414        3.9063725225
  O        -0.8671551475       -3.8405891138        9.2577088369
  H        -0.3800332879       -2.9510503857        9.4403714842
  H        -1.3292270819       -3.6517275151        8.4178732863
  O        -4.0150057852       -2.6748779850        6.9169892366
  H        -4.3140400852       -1.7582287248        6.8719580380
  H        -4.1052050871       -2.9186816773        7.8497970143
  O        -1.9544691070        2.8432824675       14.1004483562
  H        -1.3592680373        3.2295920005       14.7399413683
  H        -2.5895663716        2.2295736133       14.6390872982
  O         1.3200055546        5.7682565965        7.9381406852
  H         1.7912749389        6.6226029492        8.0422119115
  H         1.0423143981        5.5920666740        8.8861280102
  O        -3.2794202687       -4.1755607279       13.6537544789
  H        -2.4808252935       -3.6265297067       14.0110473040
  H        -3.9512685674       -3.7170703417       14.2866563789
  O        -2.8592619271       -2.7826662067       11.1095322532
  H        -2.1098609172       -3.1750117009       10.6305982584
  H        -3.0559000963       -3.2892409729       11.9427874765
  O        -8.4991034180       -6.4819486576       10.5684086521
  H        -9.2997505859       -5.9255154615       10.9516475992
  H        -8.5843234608       -6.4559295256        9.6120116144
  O         1.4552774949        2.6687847567       10.7581337111
  H         0.8372830886        2.3136165771       11.5675510319
  H         2.3798090954        2.7838429367       11.1294526971
  O         2.9536284504       -3.1114343130       10.4146028624
  H         3.6215752619       -2.3787184977       10.3364235003
  H         2.6841310902       -3.3995376226        9.5403751688
  O         6.6251471055       -9.1985584523       -2.0431294671
  H         6.8477493938       -8.2637543947       -2.0351709615
  H         7.4083900577       -9.7107059462       -1.7522467066
  O        -4.2246671671       -6.8068519462       -2.1858243664
  H        -4.3181841711       -6.0506000703       -2.8107145699
  H        -3.6148899986       -6.4979992044       -1.4785207578
  O        -1.0534392111       -6.0400496187        6.1914105819
  H        -0.4385695734       -6.3666263747        6.8477645439
  H        -1.1538731599       -5.0947381354        6.3532455364
  N         4.8320759996       -2.9813208030        7.7864326353
  H         5.3145677963       -2.4940166747        8.5852042265
  H         3.9536455255       -3.4165660444        8.1678342222
  H         5.4865749110       -3.7228159921        7.5392690784
