     193
 CELL 12.4294 12.4294 12.4294 90.0 90.0 90.0 i =    38120, time =    19060.000, E =     -1096.5694692373
  O        -2.1673740315        0.3544720673       17.5562976337
  H        -1.8703907481       -0.3687944129       16.9080446875
  H        -3.0612843174        0.6510593977       17.2440351554
  O         1.4970785748       -8.0848153323       12.4257970636
  H         2.1214704465       -8.8193371586       12.7365066841
  H         1.3913805305       -7.3398616742       13.1360913371
  O         1.0510343938       -6.1218221418       14.4711801237
  H         1.3860317572       -6.4212878281       15.3424013540
  H         0.1099915919       -5.7713946030       14.5308521375
  O        -0.5523315384       -0.1989977260       15.0438503466
  H         0.2712051982        0.3269032530       15.1043130659
  H        -0.1486772786       -0.9771015108       14.6335891604
  O       -10.6625914574       -3.9578040413       10.4936769333
  H       -11.4930824887       -3.5562392127       10.8172300688
  H       -10.4625586941       -3.6388758234        9.5660295039
  O         4.6474314960       -5.4428573744       19.3391126578
  H         4.0896221123       -4.9034874586       18.7159786177
  H         4.1861573240       -6.2512573141       19.7308739020
  O        -2.6993059810       -1.1073270931        7.3967770447
  H        -3.0293457058       -0.5745657635        8.2130530507
  H        -2.6123897651       -0.5475804173        6.6111057305
  O         5.2566883984        4.9440709301       17.1549695799
  H         4.4260373108        5.3288965741       17.3687518886
  H         5.0369283664        4.2089625947       16.5860449642
  O        -2.5423362095       -7.9731919767        4.0999916426
  H        -1.7382156709       -8.5409870491        4.2082730349
  H        -2.7765551294       -7.8606946951        5.0614541915
  O         0.1806836193       -1.6303175772        6.7648078935
  H        -0.7781598542       -1.4938102316        7.0031918367
  H         0.1562063308       -1.9638030184        5.8206455721
  O         1.3148627677       -4.8995914482        5.9067768310
  H         1.7839479567       -4.4475601909        6.6607920382
  H         0.5515161052       -5.3977621349        6.2335074354
  O        -9.3798150213        4.6582157383        7.9720263574
  H        -8.7020511638        3.9693205828        8.1345870693
  H        -9.9831327777        4.8835466035        8.7039625268
  O        -9.9091179695       -1.7208100236       15.8129317816
  H        -9.7416150058       -0.8888553299       16.3580848444
  H        -9.9572517070       -1.4436315877       14.8608950298
  O        -1.7657407581       -3.5371862330        9.2011121939
  H        -1.9787233678       -2.7678659232        8.6230392243
  H        -2.5985977444       -3.6885317636        9.6625332242
  O        -1.3563055638        1.2857670097        9.7185494585
  H        -1.2474942872        1.7710811288       10.5680943184
  H        -1.4955152101        1.9619755917        8.9912752497
  O         8.4528655509       -0.5141957461       12.5859561603
  H         8.4709362277       -0.4456519359       11.5899977277
  H         8.8462663409       -1.3811275450       12.8119676527
  O         4.2050567625       -3.6616908835        4.6173723126
  H         4.8634411229       -3.8185692584        3.8222925417
  H         3.4321403627       -3.4291141684        4.1120321895
  O         1.5426604133        1.6021430930       15.5050202810
  H         2.0316322855        1.3250623049       16.2909200586
  H         0.8101070455        2.1629731880       15.8085687149
  O         0.7346751990       -0.5701159382        9.8046878260
  H         0.0699360746        0.1455317738        9.5058705277
  H         1.4763117995       -0.0947239156       10.1575363842
  O        -2.0400845939       -5.8316067708       14.9141111428
  H        -2.5048294110       -5.0584483039       15.3512988313
  H        -2.0793190511       -6.6111022291       15.4519058320
  O         5.0410982492        3.4773036230        2.3708874364
  H         6.0261732992        3.3666231875        2.1215365212
  H         4.8499229396        4.2947495247        1.8745568771
  O        -2.2730787596        1.5323595067       13.8203224943
  H        -2.8140839317        0.7716067306       13.4108825616
  H        -1.6128764585        1.0363952815       14.3334638978
  O         5.7918739246        0.6105643339       16.1962292011
  H         6.5964227434        1.1386039507       16.3622522481
  H         5.8951777007       -0.2398874612       16.7405780338
  O        -3.6011173738       -7.4398454429        6.5696273822
  H        -4.0159935328       -6.5906541030        6.8424243641
  H        -2.9403905997       -7.7119068380        7.2366321427
  O        -5.7652187032        1.6182695563       10.9537047507
  H        -6.5404931859        1.9310669147       10.4768369740
  H        -5.5155065072        2.3401591989       11.5321305552
  O         6.3105653073       -4.8006742605        3.2317500130
  H         6.1417404249       -5.4203864862        3.9336987016
  H         6.0006027350       -5.2066247768        2.3882217434
  O         3.2745808169      -11.8682647799       17.1593466559
  H         3.0406458162      -12.0121291240       18.1166565567
  H         4.2003711350      -11.6459609272       16.9828012554
  O         2.3091192047       -3.1885717311        7.8020746222
  H         1.5466663562       -2.5993274103        7.6050552043
  H         3.1701109199       -2.5549242689        7.7796217171
  O        -3.8598406005       -6.1332892724        9.7708516080
  H        -4.0993859977       -5.7099200914       10.6281008818
  H        -3.1277467233       -6.7817239652       10.0526553276
  O        -4.3987210973      -10.5621791290       16.9403067846
  H        -4.8933991757      -10.1427522794       17.7104859058
  H        -4.0007870842       -9.8014129826       16.4216168751
  O        -4.8209046725       -4.0652887006       13.0255086965
  H        -4.2400355967       -3.4803328562       13.5378926157
  H        -5.7058235560       -3.6258048157       13.1688307024
  O        -6.5763232344       -1.7288832168       18.0528266283
  H        -7.1787191369       -2.5206555452       17.7280529292
  H        -5.7007016290       -2.1464514153       18.3275786783
  O         1.0983847917       -8.9172269156        6.6827652729
  H         1.8144576332       -8.3543871680        7.0480127740
  H         1.4093651823       -9.8520855814        7.0174263386
  O        -3.8650469694        0.1982516941        9.7222214917
  H        -4.4938723803        0.9518068590        9.8275101994
  H        -2.9571481266        0.5796768176        9.8455425747
  O         7.2104753976       -4.9607055380        7.6637361880
  H         6.2245530871       -5.0299215240        7.4702719421
  H         7.3644430722       -5.1693219497        8.6008075695
  O         6.7407340758        3.2940566005        6.4062773529
  H         6.1057300537        3.8824274811        5.8679082312
  H         7.4780196113        3.9273326182        6.6080368292
  O         2.9436194710       -4.4108910013       12.8763638222
  H         2.2156207087       -5.0121796457       13.1753183155
  H         2.7185912294       -4.0952852013       11.9384540432
  O         4.4913831628       -1.7260835380        7.9185186477
  H         4.9138209048       -1.6985074333        7.0254496354
  H         4.9680920173       -2.4434021596        8.5403143566
  O         0.3348517126       -2.8993731897       16.8361680484
  H         1.1016592265       -2.4626787967       16.4212919401
  H         0.7564261627       -3.7728536325       17.2457739434
  O         5.9146775178       -7.4011492953       10.5961965299
  H         6.7998325859       -7.2723591545       10.2065556182
  H         5.4517439810       -8.0340412505        9.9679321841
  O        -7.3450986655       -2.7352010724        0.6129346116
  H        -8.1768522337       -2.9224890988        1.0753744580
  H        -7.0715124633       -1.8097300236        0.9178309682
  O         2.4105845913        5.3529450661       17.1666471773
  H         1.8975291699        6.0649627548       17.6534661799
  H         2.0857235962        4.4999387377       17.5043016420
  O         1.7975329778        1.0169571602       19.5909144330
  H         1.2347802596        0.0863153905       19.5673503512
  H         2.3937294880        0.8550843297       20.3521414909
  O        -1.6137374692        4.7440823673       10.3861672148
  H        -0.6701113298        5.1826732191       10.2658539869
  H        -1.4813457514        4.0656648705       11.0674207183
  O         5.0145147119        3.2018038501        8.5808191237
  H         4.7915788340        2.2390264090        8.5740150012
  H         5.7364220126        3.2014724671        7.8897606972
  O        10.6951988437        3.3984340283        7.8580517725
  H        11.0535462662        3.9761746618        8.6147113843
  H        11.4733846935        3.5614933340        7.2926913278
  O         4.0760152072        0.6889883321        8.9969360764
  H         4.5809962516       -0.0671079555        8.6210693362
  H         4.0235296593        0.4729853393       10.0005160341
  O         5.8801046015       -0.2116996788       13.4517082693
  H         5.8605906057       -0.0128221374       14.4237223042
  H         6.8739722092       -0.3316578830       13.1616359209
  O        -0.9346331817        2.6798230166       11.9936044301
  H        -0.0729355720        3.0660582774       12.2847606897
  H        -1.5860488343        2.3560303024       12.7567614280
  O        -8.7859760694        0.1225486273       11.7664506860
  H        -7.9329147673       -0.1696970230       12.1203402859
  H        -9.0602039802        0.8299006675       12.3867967240
  O         8.2614760768       -2.9593014822        6.0471254218
  H         7.9773116941       -3.6956322596        6.6684590063
  H         8.5717450293       -2.2345432256        6.6680625738
  O        -0.4838289961       -2.7121477964       11.4679286048
  H        -0.1215142762       -1.8500865180       11.1768569095
  H        -0.9080692120       -3.0740894496       10.6639202748
  O        -4.2840660920       -3.0581057752       10.4950745615
  H        -4.4962163514       -2.1459094698       10.4131522471
  H        -4.4022713816       -3.3785104674       11.4784351229
  O        -0.4191521963        2.5951310728       17.0746844253
  H         0.0037801517        2.9008984840       17.9120080729
  H        -1.1082522401        1.8901286471       17.2114150608
  O         0.9771632286        5.6789515292       10.0700720134
  H         1.2931386253        6.6420390968       10.2341898839
  H         1.2438335568        5.0539444618       10.8297452087
  O        -2.3191000002       -3.4873664714       16.3646188655
  H        -1.3786392804       -3.1635537513       16.5847846807
  H        -2.9452041104       -3.4002558909       17.0968629439
  O        -2.3062948681       -2.4723574723       13.8781191877
  H        -1.6293044838       -3.0483069287       13.5252293214
  H        -2.2696377757       -2.6556153640       14.8183082624
  O        -7.3973871484       -6.8325799340       13.0696121685
  H        -8.1746936750       -6.2866341409       12.8204068740
  H        -7.0057443652       -7.0958627120       12.1995254152
  O         2.8180069489        2.3253180793       13.4688350610
  H         2.3840160746        2.0663458758       14.3480930030
  H         3.7613782842        2.6063987587       13.7720047704
  O         1.9780516872       -1.4412441308       13.1579783147
  H         2.7003061243       -1.0151228080       12.6378049795
  H         2.0743512176       -2.4042882926       13.0110850626
  O         7.8061349091       -9.0704270482        1.1812171643
  H         8.1491216676       -8.2518961556        0.8187339975
  H         8.4999472486       -9.6264966723        1.5584116076
  O        -3.8422403177       -6.6995079817        0.2434237324
  H        -4.3851236285       -6.0156436329        0.5962885418
  H        -3.0027282700       -6.4225457066        0.6733650336
  O        -0.5138402661       -6.0147833292        7.7509277342
  H         0.0734976945       -6.2514918511        8.5044157720
  H        -1.0449861671       -5.2901750127        8.1353389688
  N         5.2824467210       -3.4636463782        9.7803604147
  H         4.9677118674       -2.9938267124       10.6156969128
  H         4.7667730856       -4.3271380904        9.5205766174
  H         6.2517442798       -3.7002813965        9.9322663898
