     193
 CELL 12.4294 12.4294 12.4294 90.0 90.0 90.0 i =    37720, time =    18860.000, E =     -1096.5620642678
  O        -2.2387871059        0.5531279820       17.2972648109
  H        -1.9432453207        0.1173905040       16.4601383300
  H        -3.2703454302        0.7793270962       17.2210390660
  O         1.1042048407       -8.2343927006       12.0594912549
  H         1.9522875811       -8.5574848097       12.4901813453
  H         0.8516525455       -7.4569293402       12.6547625134
  O         0.9662745903       -6.4249261941       14.6365128561
  H         1.2836369729       -6.7577133232       15.5791195228
  H        -0.0058476254       -6.2657710870       14.7586839028
  O        -0.8567730275       -0.4753295573       14.9542008935
  H         0.1210103525       -0.2238107843       14.9262034267
  H        -0.9277937657       -1.4669248323       14.8880607434
  O       -10.6487919490       -3.9470128964       10.9208006561
  H       -11.6063024638       -3.7701860444       10.9459177816
  H       -10.2790921271       -3.5830402500       10.1476721624
  O         4.8251164528       -5.0321706727       18.9638508115
  H         4.5750197053       -4.9508833272       18.0114875939
  H         4.7112612679       -5.9917468335       19.1143239444
  O        -2.6201529771       -0.8123047619        7.1432734260
  H        -3.0534017376       -0.2366073996        7.8496922824
  H        -2.5994820287       -0.4110859674        6.2181561999
  O         5.0746034805        4.6636383844       16.8128906117
  H         4.1208984146        4.8385857466       16.8712616926
  H         5.2196160567        4.2571432634       15.9174734403
  O        -3.2771771527       -8.3373749696        3.5248271307
  H        -2.5383394756       -8.9565475395        3.6047289704
  H        -3.5542079666       -7.8874822677        4.3925347618
  O         0.1410687951       -1.3561292251        7.1303591117
  H        -0.6824552967       -0.8716254194        7.2322959801
  H        -0.0418768715       -1.7904992896        6.1878455198
  O         1.4212183840       -4.6379791150        6.1723967799
  H         1.8266728968       -4.1952504264        6.9475808600
  H         0.6492592325       -5.1511090505        6.4626282379
  O        -9.4473065516        4.9993189529        7.6391575311
  H        -9.0654985161        4.1733096487        7.9940412092
  H        -9.8133422326        5.4581584779        8.4134230121
  O       -10.3091802741       -2.1167727854       15.6070474155
  H       -10.1137097412       -1.1605778729       15.6744955163
  H       -10.4852463564       -2.1576532699       14.6321763547
  O        -2.0886989750       -3.4815068696        8.3291433256
  H        -1.5979475263       -2.8222879695        7.7690826973
  H        -2.9810448708       -3.1183870987        8.5240017797
  O        -1.3164623766        1.4662498875        9.5223936103
  H        -1.1838177695        2.0972258574       10.2624126449
  H        -1.3694077959        2.0614014516        8.7784997298
  O         8.6904525194       -0.2731936239       12.8883589687
  H         8.6444842191        0.0189477514       11.9304571114
  H         9.2379449137       -1.0767659196       12.9530982877
  O         4.3908870224       -3.9599061209        4.0974843522
  H         5.1005677831       -4.3782884425        3.5095481651
  H         3.6136188407       -3.7851313087        3.4948262807
  O         1.1291613017        1.5281696151       15.0189539702
  H         1.8122797711        1.2800678778       15.6509250130
  H         0.4678688436        2.0959265321       15.5046373357
  O         0.2656847461       -0.8267581109       10.3153538882
  H        -0.2572605249       -0.0279204019        9.9918612266
  H         0.8514908490       -0.4260852511       11.0390288200
  O        -1.8339943811       -5.9860242987       14.8417028994
  H        -2.0527718156       -5.0842659811       15.2808241546
  H        -2.1978559911       -6.7650577004       15.2634501775
  O         5.3217355303        3.7423125458        1.7929403715
  H         6.1382380871        3.2196579450        1.5937969254
  H         5.2889478606        4.4631131919        1.1207248210
  O        -2.1601470926        1.9262514584       13.9075130860
  H        -2.7860974102        1.3202061595       13.4300757452
  H        -1.5860706429        1.2398581286       14.2737847749
  O         5.5812327086        0.2768887770       15.7923646143
  H         6.2860304783        0.9583525881       16.0422601282
  H         5.8079191111       -0.4336277215       16.4154262974
  O        -3.5586331341       -7.2996759287        6.2140128632
  H        -3.9313717327       -6.4046458073        6.5276886096
  H        -2.9546566790       -7.7695917017        6.8688161325
  O        -5.6970026800        1.6069700458       10.5453949483
  H        -6.0356595675        2.4609344516       10.2990257949
  H        -5.5397369283        1.5735208386       11.5355447294
  O         6.1263305159       -5.5272756068        3.1317568895
  H         5.6663261267       -6.1962805871        3.6718808744
  H         6.3426411936       -5.8372050000        2.2364900000
  O         2.9820466329      -11.9400185378       16.4597054052
  H         2.8778480360      -11.8617171748       17.4438405003
  H         3.9165241050      -11.8734711143       16.3125363299
  O         2.2419490600       -3.0241476086        8.3903956126
  H         1.5116950040       -2.3535033124        8.3685984929
  H         3.1169121046       -2.5494716951        8.1288620078
  O        -4.2797067811       -5.8298844928        9.6464376762
  H        -4.4079677856       -5.2396999025       10.4380758131
  H        -3.4034701182       -6.2427340985        9.8445260378
  O        -4.7232951180      -10.5880787617       16.8832210454
  H        -5.3827379266      -10.3308035573       17.5613795519
  H        -4.1910491664       -9.8097108624       16.7082671681
  O        -4.7930717657       -3.8633709171       11.9163008690
  H        -4.1330116261       -3.3970917958       12.4608499188
  H        -5.6656596247       -3.8193882568       12.3079188133
  O        -6.6931785512       -1.7957797611       17.5497783599
  H        -7.2158780311       -2.6008694668       17.1768208867
  H        -5.7839029739       -2.1910318675       17.6486431238
  O         0.9751623034       -8.7555740704        6.4497329560
  H         1.5833944720       -8.1074033088        6.9424926292
  H         1.5089452652       -9.5496172851        6.6661623349
  O        -3.6093350926       -0.1020881271       10.0065594140
  H        -4.3262367486        0.5282381814        9.8653649726
  H        -2.7480938880        0.4153818440        9.9117122602
  O         7.5864097691       -5.2824030978        6.9804082060
  H         6.5900090761       -5.0500137496        6.9678083973
  H         7.9962552243       -4.9346040535        7.8257911350
  O         6.3813539336        3.4398427549        6.4575357727
  H         5.8832702072        3.9026535060        5.7063149388
  H         7.2488248489        3.9593737905        6.5257922302
  O         2.9068993690       -4.7031201422       13.6195992618
  H         2.3244547909       -5.3349164041       14.0515022501
  H         2.3854233903       -4.3138424406       12.8765025258
  O         4.6465056602       -1.7849620014        7.9805861481
  H         5.0911358813       -1.7933448889        7.0963175951
  H         5.0837889413       -2.6077048400        8.4601467536
  O         0.1260969156       -2.6987706800       17.2612088712
  H         0.8143075314       -2.3717513071       16.5154214115
  H         0.7879125691       -3.3180164106       17.7031045739
  O         5.2470492936       -7.2073993975       10.2035344926
  H         6.0946723924       -6.7753755851        9.9482437261
  H         5.0846299970       -8.0247341223        9.6714573754
  O        -7.2741277125       -3.0643289394        0.2552863210
  H        -7.6482888281       -3.4124571403        1.0846371235
  H        -6.9817529367       -2.1229303023        0.4362184465
  O         2.5403732205        5.6096950436       17.1618148462
  H         2.4251324578        6.5328467859       17.5240657948
  H         2.2030518103        5.1345833429       17.9609932904
  O         2.2506525509        1.0522606577       19.2366933257
  H         1.6278526585        0.3015843575       19.2959734832
  H         2.7110145003        1.0074984619       20.0945641694
  O        -1.7676544996        5.3166009634        9.9424187717
  H        -1.0110473122        5.9115054883       10.0306835972
  H        -1.6561252544        4.6514356267       10.7261460234
  O         4.9100066103        3.0264435112        8.5789579068
  H         4.8620616744        2.0177097547        8.7953953984
  H         5.5716266567        3.1201215800        7.8424753503
  O        10.6948709076        3.7646137653        7.7167689333
  H        10.7884699636        4.5168519744        8.4845399749
  H        11.3592947532        4.1061242017        7.0792192087
  O         3.9966212606        0.5645551024        8.9690512566
  H         4.4113400651       -0.2581633091        8.5823117286
  H         3.9008108672        0.4953092816        9.9811525000
  O         5.9915445906       -0.6040676780       13.1925945037
  H         5.7963812432       -0.3186794371       14.0870194043
  H         7.0060978926       -0.4551275044       13.0930241716
  O        -1.0929444100        3.1571203714       11.5901201034
  H        -0.1445631802        3.3986569683       11.8623683960
  H        -1.5658228507        2.7700723468       12.3583693170
  O        -8.6555207117        0.2826324575       12.1683801086
  H        -7.7633698799        0.0360193216       12.4877549134
  H        -8.8622051430        1.2251328202       12.5671046619
  O         8.4642684693       -2.9639974528        5.3897666580
  H         8.1434203022       -3.8211167390        5.7784594902
  H         8.9947426436       -2.6118209253        6.1677544717
  O        -1.0757392772       -3.2161124627       11.0239019994
  H        -0.7291261614       -2.3302963704       11.0005818602
  H        -1.6511006673       -3.2701644966       10.2238167285
  O        -4.3758669668       -2.6353984692        9.2020882299
  H        -4.3848505847       -1.7046800710        9.5314893652
  H        -4.4359746858       -3.1708960725        9.9673597188
  O        -0.6067661244        2.9158956371       16.7605185990
  H         0.0378772078        3.2742316749       17.4371073644
  H        -1.1250459285        2.1923314157       17.2263916784
  O         1.1263447143        6.0961776514        9.6034693573
  H         1.4468793130        6.8845779586       10.1273211582
  H         1.1451092101        5.3394607486       10.2612381998
  O        -1.9832376718       -3.4171067312       15.8447192135
  H        -1.1425554993       -3.2096457363       16.3982784154
  H        -2.7541894290       -3.1836533387       16.4382132065
  O        -2.6584243043       -2.6736439249       13.1426597409
  H        -1.9999310997       -3.1264069033       12.4522095480
  H        -2.4780291152       -2.9607734938       14.0861380108
  O        -7.0143439916       -6.3070149974       12.9018465930
  H        -7.7658680787       -5.6961388095       13.1789702972
  H        -7.1829765291       -6.5447591680       11.9374011378
  O         3.0171712727        2.6927529617       13.4218119933
  H         2.4328268515        2.2137001908       14.0656696323
  H         3.7826233282        3.0761988409       13.9809812816
  O         1.7812629522       -1.4937742917       12.8463195953
  H         2.5348310352       -0.8884184492       12.6394478151
  H         1.9060339445       -2.1802804163       12.1652249549
  O         7.4895085317      -10.0904075607        1.1587386552
  H         8.0965994887       -9.2432566619        1.0580069612
  H         7.8595995299      -10.5555417346        1.9115007269
  O        -3.8687340501       -7.5539025018        0.3465587462
  H        -4.2464644367       -6.6891296356       -0.0213002799
  H        -3.2466187422       -7.2727385901        1.0640758928
  O        -0.6567015247       -6.0289366280        7.2937376659
  H         0.0401857721       -6.3434175714        7.9680144755
  H        -1.0861048449       -5.2738506553        7.7924310585
  N         5.1381155550       -3.9558184239        9.5996242152
  H         5.1104804164       -3.4471719367       10.4995431103
  H         4.3299980363       -4.5795957177        9.4829135330
  H         5.9660491544       -4.4892214608        9.6170165314
