     193
 CELL 12.4294 12.4294 12.4294 90.0 90.0 90.0 i =    71320, time =    35660.000, E =     -1096.5011565330
  O         2.8919878697       -2.2602633804       34.7519424406
  H         2.5147655799       -1.4358452733       35.1084248656
  H         2.8955132026       -2.8496493798       35.5944585484
  O         4.1361145410       -9.5995274271       31.9746116626
  H         4.8624754611      -10.1421793412       32.3201917425
  H         4.3496729452       -8.6356157062       31.9457103448
  O         8.8053402027       -5.0611576179       33.1684175397
  H         9.8356891051       -5.1425643910       32.8803992161
  H         8.5305973273       -5.9167251857       33.5469289035
  O         4.4812988804        0.5610308039       33.6974871778
  H         4.9998813600        0.3978175077       34.4775139294
  H         3.5846883985        0.6491497314       34.0855425364
  O        -4.8550293336       -6.4256276920       29.7078217246
  H        -5.2195988005       -5.5578510444       30.0505812971
  H        -4.7515395684       -6.3141727598       28.7609520860
  O        12.3710319345       -4.9170701653       40.7420974327
  H        11.6307158034       -4.4715856490       40.2428594269
  H        12.1809721606       -5.9161953597       40.8043831399
  O         5.6983012441       -2.1599193196       23.6540319336
  H         5.0847010683       -1.8102558225       22.9537703920
  H         6.5078516856       -1.6083379024       23.5542667505
  O        11.9454727741        3.1206780224       36.5116320424
  H        11.2374525901        2.5114503445       36.5626420782
  H        12.0133238577        3.2528615747       35.5496190035
  O         1.8512986501       -7.5264793262       24.8054716163
  H         2.4138260606       -6.9360686215       24.2334077909
  H         1.3284145021       -8.0572223502       24.1560708168
  O         6.3490630750       -3.7434770861       26.5095285403
  H         6.7409871275       -3.2940408672       25.6979730420
  H         6.5832923274       -4.7110262629       26.3812267930
  O         7.4986321723       -6.5962128538       26.9204829649
  H         8.4196917889       -6.9199519422       26.7893456093
  H         6.8899812694       -7.3286275519       26.6769472806
  O        -0.5093016044        4.9416752151       28.8645869821
  H         0.3407158159        4.5299942070       28.5783996392
  H        -1.3062189930        4.6224298050       28.3616269363
  O        -4.5451036455       -0.9145351474       35.7088740642
  H        -4.2907582658        0.0218446694       35.6492577337
  H        -3.9922323482       -1.1272370659       36.4763646307
  O         4.0136076680       -4.1207099548       28.3305416845
  H         4.7668081752       -3.9702108629       27.7204167908
  H         4.2513556822       -3.5724963038       29.1205269099
  O         3.8821836561       -0.5752629066       28.3488980934
  H         3.6003305391        0.3604479154       28.4566464571
  H         4.5129329368       -0.4805726822       27.6257722724
  O        14.8006819676       -2.7549355565       32.2087897069
  H        14.9550142508       -2.6641910794       33.2464658815
  H        13.9482051004       -3.1597607755       32.0371433922
  O        11.2654004602       -5.9430405664       25.4607058365
  H        12.0900156415       -6.2274411089       25.0677901343
  H        10.7517903725       -5.6438398287       24.6926413829
  O         7.3968231216        2.2710766578       34.4824225944
  H         7.0651737612        2.1288990034       33.5144194365
  H         6.7084528857        2.1108318781       35.1711073308
  O         4.5306967509       -2.5353409302       30.5186963427
  H         4.3008363030       -1.6820558517       29.9672787117
  H         3.7824880414       -2.6317257685       31.1781804967
  O         7.4934816705       -7.3979436785       34.3917314356
  H         7.0878304290       -6.9556302821       35.1573804909
  H         7.3612087489       -8.3815146947       34.4652266521
  O        12.1931142478        3.0339969408       21.2175500911
  H        12.1936175918        2.0726324593       20.9168956133
  H        11.9259912669        3.5526331170       20.4009081087
  O         2.3956827285        3.5380341664       33.9216704921
  H         2.9816777850        3.1204147225       33.2238533222
  H         1.5428310433        3.4534706156       33.5903791691
  O        11.4345180591       -0.0962081717       34.3149855130
  H        11.0053135451        0.3777138852       35.0186307380
  H        11.7803217180       -0.9696948236       34.6356758467
  O         3.7730870508       -9.4164045625       25.4093968109
  H         3.2157119500       -8.5975387666       25.3022929772
  H         3.0895352655      -10.0025662234       25.8121687540
  O         1.3763971597        0.1081421666       31.0620482406
  H         1.9640319777        0.7947618938       30.5837940780
  H         2.0174699406       -0.5106683777       31.4289366198
  O        11.4503892951       -5.2188528294       20.2461542929
  H        11.9460347022       -5.1500575793       21.0794904814
  H        12.0373519177       -4.5590130214       19.7018039685
  O         8.9082174853      -10.6764370268       38.5380952270
  H         8.0270070992      -10.1453671374       38.5388170312
  H         8.8243250187      -11.4004399324       39.1837017194
  O         9.5532649417       -2.2438073327       25.1015756052
  H         9.3324616613       -3.1255475849       24.6018866302
  H         9.7620285013       -2.6099724489       26.0456098363
  O         3.7855846450       -6.6789385726       27.7855926116
  H         4.4663507341       -7.1914020135       28.2243627896
  H         3.7981505161       -5.7675816773       28.1955315763
  O         1.8368914128      -11.9190937387       34.4862776239
  H         0.9087383799      -12.1481468222       34.3292536216
  H         1.7855880814      -10.9608501980       34.6760888023
  O         0.1675184071       -3.4931775126       30.5412121230
  H        -0.5147618797       -2.7938758827       30.7052717084
  H         0.0221675379       -3.9156191335       29.6075574869
  O        -0.1018024415       -2.1069558938       35.9930330741
  H         0.4276975721       -1.5273082788       36.6568722054
  H        -0.9166575734       -2.2217769672       36.5438246299
  O         9.9752451523       -8.1285074497       27.0024561145
  H        10.4160098013       -7.6282878139       26.2424855879
  H         9.8153219055       -9.0651814569       26.7211186267
  O         2.0268876350       -0.8560653964       25.2143115670
  H         2.2730566412       -1.4044893095       26.0121534274
  H         1.9846286103        0.0487791012       25.5509830183
  O        14.3227898401       -3.3465643663       26.8915365938
  H        13.5575789857       -3.8470534792       27.2436148173
  H        15.1306997609       -3.8109006292       27.4408379663
  O        13.7630753093        1.8253300783       25.6799116633
  H        13.2242423465        2.2906673193       24.9485067085
  H        13.1112923781        1.6168450295       26.3433062355
  O         8.8015186683       -8.4613826380       30.8800586456
  H         9.6798746708       -8.1261218510       31.2191152366
  H         8.3259902325       -7.6992668948       30.5085436846
  O        10.2115184759       -2.5009457467       27.9578799903
  H        10.8704197245       -1.8524283457       28.1919754197
  H         9.7646216458       -2.7937301777       28.8566058909
  O         9.4056386628       -4.7508758137       36.0919377739
  H         9.3670103315       -4.7392771177       35.1027239914
  H         8.5742715734       -5.2774623230       36.3654255623
  O        14.1967055222       -8.5553726285       27.9966949761
  H        14.9736874687       -7.8990956995       27.8752140016
  H        13.9022358975       -8.7900097022       27.1230373529
  O        -4.4972194381       -0.6337420687       18.2152451602
  H        -4.8002522271       -1.3997104785       18.8283107181
  H        -3.5496938543       -0.4633884079       18.5136217044
  O         9.5467315515        1.4378765180       36.0419567623
  H         9.3138640874        1.6881763920       37.0225849007
  H         8.9486746388        1.9516837544       35.4368542743
  O         8.0469467673       -0.4653765771       40.2506812690
  H         8.7082635881       -1.1852208315       40.3446265648
  H         7.7161641819       -0.3694705199       41.1841261670
  O         6.3957655873        3.3479701062       26.3314103014
  H         5.4922147145        3.3053283856       25.9177291974
  H         6.1805678608        3.3446806219       27.3364909334
  O        12.0287455400        1.2163467199       27.6878206716
  H        12.2084326708        0.3635540663       28.1398192405
  H        11.0617150476        1.1567817065       27.6847197616
  O        18.2297346513       -0.4249324938       26.2656818987
  H        19.0424113492       -0.6580254693       26.8389570137
  H        18.0224919316       -1.2153944098       25.7382621663
  O         9.9900615049        1.7621776442       29.2568912286
  H         9.4743317623        2.5653078252       29.5506922612
  H        10.8929679633        2.0212362234       29.5225683945
  O        12.9598354883       -4.5665289894       35.0278090880
  H        13.8540509042       -4.8368389486       34.7343565693
  H        13.0010882720       -3.6160302075       35.3392066179
  O         2.8369328832        2.0926418391       29.7300807000
  H         3.1535374932        2.6973209857       30.4772652966
  H         2.1900708278        2.6039414490       29.1527599948
  O        -1.6466809667       -0.9202280828       31.6351027569
  H        -0.8023749085       -0.4321749731       31.4868944949
  H        -1.9178617624       -0.5952406696       32.5010063606
  O        15.8637210844       -3.7938864956       24.5274400036
  H        15.2455965314       -3.4529545221       25.2169284880
  H        16.6813829365       -3.2357597223       24.4564211378
  O         6.3210468491       -4.2540370316       31.1298955941
  H         5.7149693647       -3.4527969544       31.0730712042
  H         6.8861488826       -4.2260152807       31.9445853356
  O         0.4290649010       -1.3108689655       28.5782525134
  H         0.8778544868       -1.0300750634       29.4213479549
  H         1.0013846175       -1.8080866849       27.9836084522
  O         5.4903065241        1.4976891775       36.4801887591
  H         5.6718089142        0.9663816648       37.2373649734
  H         4.7254468708        2.0836604010       36.6632569620
  O         5.6813058912        3.9388106671       29.0544187377
  H         6.2225040825        4.5638372083       29.6328308307
  H         5.4580821703        3.1366321448       29.5547111354
  O         6.7790039310       -5.6475142405       36.2860428858
  H         6.3973132806       -5.1584830153       35.5197401597
  H         5.8374080338       -5.9940665686       36.6948647479
  O         3.0077140104       -6.1265834596       34.5875440118
  H         3.8744916350       -5.7981448485       34.2933831988
  H         2.8833596118       -6.9940913182       34.1482820782
  O        -1.0149176884       -7.8713713894       31.7029762112
  H        -0.7295854346       -6.9814398016       31.9980502584
  H        -0.6288876259       -7.9290118781       30.7966515632
  O         7.0466626907        1.6857436786       31.6864115220
  H         7.1664782879        0.7878006448       31.2611664465
  H         7.8991568585        2.2137579475       31.5141493016
  O         7.4725128894       -2.3243726239       33.0271122445
  H         7.9239297960       -3.1398627463       33.2709406610
  H         7.6624798105       -1.6158651991       33.7757592525
  O        17.6867027227       -6.8865654907       19.9499432642
  H        17.9568645242       -6.2229926651       19.2965734736
  H        18.4364466650       -6.9995615749       20.5651842400
  O         5.6597161847       -4.4087490119       21.6075577158
  H         5.8357624756       -3.4631797527       21.8416637249
  H         5.1848671886       -4.3965089572       20.7828633747
  O         4.4803447176       -6.1633422250       24.9955391691
  H         4.4119883836       -6.3938094196       25.9862286497
  H         4.0791594634       -5.3301262237       25.0039752750
  N         9.2638496568       -3.3789746845       30.3264393154
  H         9.7445021709       -4.1962417954       30.7488690604
  H         9.6448000918       -2.5471504395       30.7965821787
  H         8.2870727047       -3.6319322134       30.4625850668
