     193
 CELL 12.4294 12.4294 12.4294 90.0 90.0 90.0 i =    70520, time =    35260.000, E =     -1096.5118805809
  O         4.1041730481       -2.2058711642       35.2673651276
  H         4.4441780899       -1.5104273118       34.6657513258
  H         3.4229118182       -1.7391397061       35.8349742220
  O         4.4952545128       -9.8379196880       30.8727065459
  H         5.3576533116      -10.2646156036       30.9628455024
  H         4.4865858668       -8.9324717211       31.3659544790
  O         9.0798152372       -5.0415585801       33.5813952015
  H         9.7173017748       -4.7305760407       32.9679640971
  H         8.5886381394       -5.8376831782       33.2912068730
  O         4.9944141841       -0.3779164280       33.6554843136
  H         5.3532038167        0.2640453035       34.3103779682
  H         5.7609142757       -0.5590856997       33.0971981486
  O        -5.6532357644       -6.5847609011       29.5042036759
  H        -5.9628758040       -6.2024263522       30.3411944861
  H        -5.8470006507       -6.0584691579       28.6512415913
  O        11.7657631971       -4.7972865848       39.7362273904
  H        11.2313682206       -4.9136012139       38.9138687164
  H        11.8408666133       -5.7113545668       40.1502140344
  O         6.1925023634       -2.2580534054       24.2638395053
  H         5.3666935589       -2.2355333548       23.7180997910
  H         6.8745623286       -1.8383965140       23.6882986627
  O        11.8824058129        1.5335058851       34.7305811411
  H        11.0190751473        1.0322046647       34.9004626123
  H        11.8493715182        1.8021917067       33.8073280844
  O        -0.1180305679       -8.6928145195       23.8072301110
  H         0.5857760193       -8.3074407086       23.1889055189
  H        -0.6441420944       -9.3939446007       23.2599547303
  O         6.0134803635       -3.5800595301       26.8436636596
  H         6.0341106747       -3.1286028601       25.9831362701
  H         6.2430707020       -4.5388165101       26.6514846922
  O         6.7331750798       -6.4259316858       26.7163270566
  H         7.6640036002       -6.7099507909       26.9799883999
  H         6.2610428641       -7.2659257386       26.4858777022
  O        -0.6701254991        5.3060213031       28.4847238848
  H         0.0719474899        4.8462286059       28.0222328521
  H        -1.4746926370        5.1529429854       27.9505596629
  O        -3.7424084710       -0.9187781799       35.5333549080
  H        -3.6080881306        0.0033572429       35.6860570290
  H        -3.1672668956       -1.3741088871       36.2636069660
  O         3.8582311164       -4.1879821620       28.7342989573
  H         4.5848369950       -3.8329569307       28.0958336059
  H         3.7632105261       -3.3724538925       29.3288908246
  O         3.3712314613       -0.5251422022       27.1528781241
  H         2.9605476748        0.2931577572       27.4923423305
  H         4.2013885650       -0.3017373775       26.6441240554
  O        14.1866871283       -1.5569460997       32.1378707212
  H        14.2571607573       -0.9661122078       32.9442364669
  H        14.4120581247       -2.4935717806       32.4029552475
  O        10.8596365196       -6.7983052559       25.1847247115
  H        11.4596868488       -7.4537903129       24.6390081766
  H        10.1958963084       -6.4934535165       24.5295246974
  O         7.6173110172        3.1647271847       34.3154315320
  H         7.5366850710        2.8035426176       33.4387664158
  H         6.9445060944        2.7647878929       34.8912498761
  O         4.0736162649       -1.7029117073       30.1543552694
  H         3.8410183188       -1.1176879892       29.3715830976
  H         3.2071958424       -1.7097510519       30.6940197257
  O         6.8242119648       -6.6616568222       33.6686919691
  H         6.4122320480       -6.0957233523       34.3987775979
  H         7.2226814724       -7.5109530669       34.1003018477
  O        12.3797819305        2.7987610241       19.5884612940
  H        12.0626987151        2.3274051564       18.8206365319
  H        12.1082454114        3.7367094468       19.5257024564
  O         2.6125472123        2.6019935376       32.8694135946
  H         3.2799535878        2.3355638114       32.2022445708
  H         1.7624324909        2.5827632235       32.3950864978
  O        10.8748904947       -1.5602100239       33.3911398372
  H        10.1583995308       -1.2714531265       33.9225187793
  H        11.3775511002       -2.1480781719       34.0138793432
  O         3.9482372418       -9.1572538706       24.3191945881
  H         3.7180166836       -8.1711371894       24.3150576903
  H         3.0861805238       -9.6407285376       24.6077808471
  O         0.8672555808       -0.0694640275       29.9458064743
  H         1.5320144068        0.7090863523       29.6557402317
  H         1.3232062314       -0.7168109614       30.5611737017
  O        11.2763504792       -4.5218636306       19.5237106367
  H        12.0022266191       -4.3981855122       20.1632933758
  H        11.3178289720       -3.7172065299       18.9274751784
  O         8.9205968593      -10.2340359390       38.8081112140
  H         8.0933385000       -9.7841447145       38.5699385024
  H         8.6355756842      -10.9170747559       39.4094332206
  O         9.9605650071       -2.4910037082       24.8181774795
  H         9.6136797389       -3.4364456006       24.6668705017
  H         9.9381346963       -2.3356202891       25.8760657315
  O         3.6512107365       -6.7408695177       27.6991883462
  H         4.0790602316       -7.5756800134       28.0943168288
  H         3.6530893469       -5.8886494400       28.1938274497
  O         2.0534848860      -12.2850486656       34.3634062715
  H         1.1360191894      -12.0943303264       34.6586861101
  H         2.2904515230      -11.4267184642       33.8923602618
  O        -0.8142255826       -2.6947216255       30.0136029549
  H        -1.1317807531       -1.7636214721       30.1055004993
  H        -0.9496509760       -3.0149221400       29.0880152080
  O        -0.1064876006       -2.4336830267       35.8467229335
  H         0.6627121462       -2.0578061044       36.3351121465
  H        -0.8751008020       -2.5525862963       36.4951935091
  O         9.4051582814       -7.4278491062       27.0826876652
  H        10.0703676776       -7.4129894992       26.3557747403
  H         9.2633253001       -8.3529122299       27.2585437942
  O         2.2548477138       -1.0262160414       24.5014843595
  H         2.3860611862       -1.0045053025       25.4899689337
  H         2.2738293545       -0.0745215894       24.2646664833
  O        13.9334124562       -3.0843983825       26.9749305779
  H        13.1738079885       -3.7176268205       27.1915178066
  H        14.6165991457       -3.1406765643       27.6615902285
  O        14.0553357108        1.6909240895       24.9906358437
  H        13.5081065460        1.8418862450       24.1717872905
  H        13.4063072120        1.6794849470       25.6882744722
  O         8.9448754141       -8.4649045729       30.3781436567
  H         9.7001225998       -7.8731607668       30.7115247717
  H         8.3621836738       -7.8460855399       29.9719283783
  O         9.8162052267       -1.8543826469       27.2922542995
  H        10.7824561551       -1.4792614778       27.5319555738
  H         9.4839058943       -2.6521482991       27.8457744325
  O         8.9752626147       -5.0913064433       36.5861332129
  H         9.1170716484       -5.0166675188       35.5803245000
  H         8.0605430998       -5.4497554318       36.6835018887
  O        13.8345635139       -8.1075181548       27.1881121585
  H        14.5970446999       -7.4743445555       27.1457031726
  H        13.6343272386       -8.2199970134       26.1774388923
  O        -4.5262912523       -0.7513809907       18.0925886995
  H        -4.9321544658       -1.2990352136       18.7855266912
  H        -3.5546953163       -0.5566887760       18.2339715432
  O         9.4860047460        1.8284760788       36.0055089100
  H         9.3904169430        1.9808591969       36.9640279022
  H         9.0548313358        2.4574186833       35.5096719669
  O         7.9453744340       -0.0918061159       40.0423351788
  H         8.7368133043       -0.7173456345       39.9379713550
  H         7.7276607746       -0.1833720550       40.9758233525
  O         6.5142032915        3.2611918090       26.0423333454
  H         5.6944513344        3.0384194182       25.5004846216
  H         6.1482061279        3.4372421198       26.9573673662
  O        11.7220839550        1.3437135616       26.7385980958
  H        11.8470002096        0.4123416124       26.8055082870
  H        10.8175095575        1.4496901983       26.3793039591
  O        18.1393476728        0.2908761977       25.8742370815
  H        18.8473785534        0.3751665791       26.5670260442
  H        18.2288219014       -0.6178730520       25.4780641328
  O        11.1747779796        2.1064315861       29.3483760053
  H        10.5011230486        2.7744732288       29.5760464963
  H        11.3695840746        2.1008842936       28.3590895255
  O        13.5079920728       -4.0162729516       33.8601203159
  H        13.8446136984       -4.8917739459       34.2101490837
  H        12.9747081231       -3.6764634811       34.6329457417
  O         2.5571380006        1.9218467948       28.8436856753
  H         3.2704305464        2.2071791475       29.4585315119
  H         2.1219459463        2.7308739273       28.5610247069
  O        -1.8759884285       -0.3455590482       30.8184462967
  H        -1.2160865135        0.3575625268       30.5643226588
  H        -1.4429775880       -0.6332321862       31.6303757579
  O        14.8563972133       -4.3541571785       24.4318939045
  H        14.4409504468       -3.7912601605       25.1813753233
  H        15.2270984798       -3.7079047640       23.8376663696
  O         5.5975685168       -4.9566327668       31.2900651843
  H         5.0831766066       -4.3733373249       30.6788270385
  H         5.6228780611       -4.6462361955       32.2385632578
  O        -0.1522323275       -1.1098439658       27.3796009812
  H         0.1611541191       -0.8402733857       28.2929232215
  H         0.4751610592       -1.9048997413       27.0979895310
  O         5.9612088696        1.5095600607       35.7131730681
  H         6.2091486158        1.1255511256       36.5955482096
  H         5.2083822841        2.1573649026       35.9660885923
  O         5.3323634754        3.8913834393       28.4257128805
  H         5.7447040517        4.6194862421       28.9871642782
  H         4.8909700633        3.2136195406       28.9510970632
  O         6.2692119088       -5.4756360531       36.2441498891
  H         6.2297185059       -4.4753642979       36.2194105324
  H         5.4442722124       -5.7865663099       36.6806602051
  O         2.3413166277       -6.9403491049       34.2415248987
  H         3.1682158374       -6.5414368314       34.5507585510
  H         2.6145403877       -7.5364155393       33.5391835319
  O        -1.2355899455       -7.1794096163       31.0921937900
  H        -1.2992120797       -6.2652343111       31.3019364940
  H        -0.9571604635       -7.2482468615       30.1045516256
  O         7.3020142797        1.9173505079       31.5943851883
  H         7.5660869248        1.1522005665       30.9689315792
  H         7.8178941305        2.7515616467       31.2737747411
  O         7.2753714867       -2.5472352622       33.0682751494
  H         7.7537862439       -3.4488369144       33.1228134368
  H         7.6559014928       -2.1630580123       33.8675539185
  O        17.0731295172       -7.5530638557       19.6407548143
  H        17.0544033788       -6.6616595639       19.2007965720
  H        17.9625456127       -7.3969661747       20.1288741380
  O         4.2181267439       -4.4843433289       21.3302968728
  H         4.2048608234       -3.5532930654       21.6736305045
  H         3.4064237490       -4.6904330122       20.8491731946
  O         3.8761101564       -6.4860601895       25.0867124441
  H         3.8725543968       -6.4950742706       26.1199854528
  H         3.1338059125       -5.9024989418       24.7992134117
  N         8.8077217495       -4.0790789479       28.6664665633
  H         8.4528726275       -4.6958012730       27.9673210248
  H         9.2868860051       -4.6918381918       29.3340278436
  H         7.9957191338       -3.7421339609       29.2392408154
