     193
 CELL 12.4294 12.4294 12.4294 90.0 90.0 90.0 i =    93320, time =    46660.000, E =     -1096.5464139894
  O         6.6369711057       -0.5397205836       47.0894387032
  H         5.9354487025       -0.9832696391       46.5599299815
  H         6.1574499168        0.0631539348       47.7374452419
  O         8.9151184345       -8.4293785877       43.3635014294
  H         9.8091062925       -8.8260682696       43.4189024667
  H         9.0452522619       -7.4937312729       43.5864776280
  O        10.1123093528       -3.0029182508       47.3033745216
  H        10.4173796648       -3.4518444839       46.5159494695
  H        10.8521926326       -2.6390090099       47.7263165257
  O         8.7060434154        0.0832085487       45.7277949484
  H         7.9054166936       -0.1409050857       46.3670027132
  H         8.5454492786        1.0522314239       45.7055475373
  O        -2.1508871497       -6.0101633079       43.3386691889
  H        -1.4000739910       -6.1523199702       42.6858760803
  H        -1.8374036959       -5.2927884427       43.9704176463
  O        16.8248808816       -1.2524803334       53.9035304439
  H        17.5509089991       -0.5551867855       53.7820700651
  H        17.1906456453       -1.9908883486       53.3404483994
  O         7.5082459086        0.0010944632       38.0496230781
  H         8.4444994320        0.2674738995       38.1701296402
  H         7.4567551111       -0.8749891660       37.6438784942
  O        13.7496411733        4.6193016569       47.2499605592
  H        13.2148133767        5.2189908074       47.7924339861
  H        13.5334257864        4.8447873289       46.3043887194
  O         6.0930079772       -8.0000244370       35.7183506484
  H         5.9245519962       -7.2273750597       35.1823147608
  H         5.2029706654       -8.3732156928       35.9971304327
  O        12.0299365560       -2.8586936564       37.3873361771
  H        12.4263323826       -2.0080925250       37.5901770831
  H        11.8226542819       -3.3086302499       38.2273834101
  O        11.1033756967       -5.1387853557       39.4546771044
  H        10.2149183942       -4.9150379358       39.0047321868
  H        11.5170272354       -5.7922030500       38.8782588151
  O         4.0637478638        6.1735281356       40.6006019941
  H         4.9540204327        6.3294173680       40.1691449954
  H         3.6641993249        5.4360511567       40.0733797444
  O         0.2234520309        0.1451264727       50.0206996827
  H         0.4566774491        0.9224041704       49.5053284471
  H         0.7160227420        0.1424664046       50.8492082640
  O         8.0612749114       -2.2155582925       41.1041378248
  H         8.7302580163       -1.7601683171       40.5446003547
  H         7.9165431152       -1.5741858148       41.8253594843
  O         7.8587050411        2.9412191475       41.1228406028
  H         8.3073996244        3.4438557243       41.8892625022
  H         8.1805780757        3.3605873891       40.2155198583
  O        17.6235459698       -0.4907172310       44.7603674718
  H        17.4465528992        0.3696703800       45.2184461497
  H        16.7436287789       -0.8213883034       44.5334680868
  O        17.7567752480       -3.1284290704       39.6317428823
  H        16.8458409901       -3.5031486576       39.4986607208
  H        18.3608205527       -3.8419390911       39.9895023098
  O         9.8568554708        4.2438069229       46.4889464446
  H        10.3630781945        3.7757795383       45.8182276216
  H         9.8109972999        3.5758935428       47.2407584817
  O         7.4800443733       -0.2814253228       43.1029849824
  H         7.9423237839       -0.5779762727       43.9150861936
  H         6.5523827745       -0.2896178412       43.4292168401
  O        11.1478049041       -6.3196724543       48.1965385057
  H        10.4639608916       -5.8842882030       48.7374486417
  H        10.7308906286       -6.8737715007       47.5680812116
  O        13.7786548323        4.8722974945       31.9986754091
  H        14.5098790067        4.2876131357       32.0219801162
  H        14.0213613617        5.5969011834       31.3307527837
  O         6.2286921600        6.1962583679       44.1713854649
  H         6.6368775284        6.8546691472       43.5502497493
  H         6.0388209448        5.4202744842       43.6011030972
  O        14.6895756748        0.3641072425       46.8814203650
  H        14.1032016009        0.7800501175       47.5325586884
  H        15.0916487806       -0.4322429465       47.3674271387
  O         7.2338492296       -9.4358487742       33.1420140668
  H         7.5630345982       -9.0113679597       32.3233717971
  H         7.6886910177       -8.9720183764       33.8872037955
  O         3.2867218653        2.9810764924       43.9137027121
  H         3.9443151902        3.4362446811       43.3337920401
  H         3.8164452428        2.6240465191       44.6357844105
  O        14.2213861317       -3.7338347677       31.9588103812
  H        14.6348770656       -3.9358440246       32.8617686994
  H        14.4729973746       -2.7911171251       31.7178518702
  O        11.7352005504       -9.3960559811       51.0010310855
  H        11.1494559931      -10.1515831842       50.8595108867
  H        11.9782947033       -9.4029765311       51.9370657898
  O        15.2259807826       -2.9336054744       38.1613777490
  H        14.4993978470       -3.5596208712       38.0672442608
  H        14.9172653403       -2.2114385537       38.7945970952
  O         8.1461530823       -4.9694847496       42.0961783585
  H         8.9601683237       -5.3792243167       42.6265732874
  H         8.1043296898       -3.9907957623       41.9349287978
  O         4.8939253035      -10.6329744422       45.8857985347
  H         4.4480309810      -10.5944268894       46.7410488510
  H         5.7931762076      -10.2930184872       45.9690450473
  O         2.3280448488       -1.0691735192       43.4167904365
  H         1.9365126163       -0.3191364813       42.9048681911
  H         2.9376895128       -1.4550706464       42.7643064052
  O         3.5996992000       -1.9186147038       48.2486976337
  H         4.5429400077       -1.8265940260       48.6263181810
  H         3.1159535086       -2.2448197843       49.0931623262
  O        12.9082954565       -6.9569524979       38.4999926242
  H        13.3262193525       -6.3449290299       37.8057273591
  H        12.3328530712       -7.6264699812       38.0480049218
  O         5.5459497069        1.3107544825       36.5706814720
  H         5.7175056224        0.8052611599       37.3965646103
  H         4.7967516179        1.9151814917       36.7298939526
  O        18.5618762412        0.7547111553       40.5739925683
  H        19.0580117082        0.1043098657       40.0364597306
  H        19.3414647944        1.2101136140       40.8853267052
  O        16.3648257358        3.4438505424       36.6508331148
  H        15.6141345678        3.5710216829       36.0513878330
  H        16.0830677290        3.7392833560       37.5635914309
  O        12.1161749647       -6.6523310533       41.7200431839
  H        12.9242507521       -6.1058034353       41.8789573423
  H        11.6708144389       -6.2162808539       40.8819239147
  O        14.1567679515       -0.7958908208       39.7189822178
  H        14.9079534883       -0.4605593044       40.2212525069
  H        13.6108844131       -1.3979262072       40.3404834876
  O        13.8908573500       -5.1182699559       49.0734192785
  H        14.4521602058       -4.9905585967       48.2089451142
  H        13.1252077659       -4.5381594988       48.7660091397
  O        18.9121174715       -5.5663502767       40.0665889584
  H        19.7327613423       -5.4422258266       40.5957898643
  H        19.0941790746       -5.8563230319       39.1142774051
  O        -1.8091982071       -0.7956723331       31.3022148267
  H        -2.3020913052       -0.3148264098       31.9765821418
  H        -0.9150036537       -0.4304491429       31.4574730064
  O        12.7348130607        2.1146862444       47.9586233430
  H        12.8833864805        3.0198463627       47.5931956155
  H        11.8171587495        1.7500660620       47.6825135870
  O        10.0756840658        1.2930920449       54.1026823864
  H        10.2402889188        0.6869118697       54.8698263190
  H         9.1443747287        1.6451787584       54.3154163715
  O         8.8365626871        3.6775135285       38.6069412518
  H         8.5931890403        3.0911278052       37.7982862715
  H         9.8458784742        3.7152677880       38.4581605997
  O        15.3495237578        4.0849379430       39.0359429992
  H        15.4666381631        3.2336405141       39.5844601934
  H        14.3457434755        4.2098953607       38.8754237973
  O        22.6233283412        0.8934613771       38.7658848869
  H        22.7031202628        0.7149691886       39.7244914282
  H        23.3075883164        0.3824760280       38.3209469874
  O        14.2291207094        1.5329380052       42.3974416270
  H        13.6910007587        2.2860821080       41.9885949066
  H        14.9187794441        1.9714327802       42.9378668689
  O        15.3021516022       -4.1650455696       46.7067715439
  H        16.1652896013       -4.6187727441       46.5280721872
  H        15.5589053388       -3.2495402833       47.0784902894
  O         5.4925706381        4.2457447866       42.4444693672
  H         6.1272332551        3.7236402209       41.9255814426
  H         5.0171397661        4.8447346468       41.7990555638
  O         0.3090627657        0.9455643338       44.7768936791
  H         0.8243096955        1.1681938417       43.9769563975
  H         1.0281068221        0.7259323363       45.4153409196
  O        18.7520828015       -2.1336343969       37.2190360333
  H        18.4540276939       -2.5455704276       38.0607544289
  H        19.1551752117       -2.7797481913       36.5729710245
  O        11.3693809374       -3.3495765648       44.7359538740
  H        11.0079549088       -2.4953663154       44.2910058585
  H        12.2828114658       -3.2197535747       44.9080926631
  O         3.6006991757        1.7403925496       40.2023828825
  H         3.0589548294        1.5393852384       41.0160582514
  H         4.5264256932        1.3304722267       40.2881059471
  O         8.5134421547        2.4880433857       48.6826658079
  H         9.1912342368        1.8213606174       48.6180106892
  H         7.6112163474        2.0609627505       48.6192414518
  O        12.3475467964        3.0144233714       41.4674260249
  H        11.4821869369        2.5776216211       41.7369950001
  H        12.3124107920        4.0258743629       41.6321608954
  O         9.2711617025       -4.8509980559       49.7719893079
  H         9.3798050620       -4.1717222144       49.1180807319
  H         8.3638487611       -5.1489385482       49.7306581715
  O         5.2309529355       -5.4039206164       46.4061088433
  H         5.8845601714       -4.8006218665       46.7505494456
  H         5.6380824585       -5.8257008057       45.5411416448
  O         1.8770814807       -5.4500688690       42.3655772324
  H         1.9406113239       -4.7873806881       43.1177689465
  H         2.7275137920       -5.4411790177       41.7982087026
  O        11.3837389722        3.2415086523       44.4951636071
  H        11.9284046713        2.4525284494       44.7554186294
  H        12.0338839926        3.9581341178       44.4400983947
  O        10.4066436438        0.5646847360       47.8662340249
  H        10.8046739797       -0.2500258549       48.1671054844
  H         9.9211858865        0.2585146057       47.0499594350
  O        20.8063506450       -5.8749155190       33.5096096665
  H        20.0414962302       -6.0610637443       32.9397690992
  H        21.3648443310       -6.6953101319       33.6550276359
  O         7.3277555672       -3.6688249843       34.8738019755
  H         7.8891962470       -4.3706227125       34.2950230257
  H         7.8025717057       -2.8447222201       34.7184979433
  O         7.2285467433       -6.5627690801       37.7100351633
  H         7.8901240574       -7.1691863018       38.0654022411
  H         6.6436316722       -7.1446369134       37.1105012061
  N        12.5825053537       -2.7872637023       41.2385708502
  H        12.4284642481       -3.5968188430       40.6219280784
  H        12.9171731786       -3.0625160818       42.1440480321
  H        11.6663871015       -2.4280578985       41.4156375146
