     193
 CELL 12.4294 12.4294 12.4294 90.0 90.0 90.0 i =    29720, time =    14860.000, E =     -1096.5325774902
  O        -3.7886443027        1.0987805814       12.1355821450
  H        -3.4829533722        0.4942120763       11.4707346564
  H        -4.7744608751        1.2611944237       11.9616981134
  O        -0.8649121715       -8.5192504952        7.4970830604
  H        -0.0679032128       -8.9969776401        7.3213593095
  H        -0.5900843228       -8.0992107403        8.3492053481
  O        -0.6326608245       -7.3498015567        9.9981081956
  H        -0.4377288145       -8.1482002909       10.4372035046
  H        -1.5933385794       -7.1208657193       10.0941874231
  O        -2.3214158106       -0.1834319995       10.3020642832
  H        -1.4173126016       -0.1947055614       10.6196355836
  H        -2.3556706490       -0.5464646624        9.4229328570
  O       -11.6325590621       -4.4780352853        6.2818932070
  H       -12.5991716990       -4.2998074617        6.5182622078
  H       -11.6101737036       -4.2120124000        5.3019088959
  O         3.4999731023       -5.3834733907       14.7081185612
  H         2.9213994056       -5.1712966770       13.9035372905
  H         3.2129395388       -6.2110347109       15.1678468211
  O        -4.2399477220       -0.4145140783        1.8873408699
  H        -4.5161278060        0.2487953262        2.6503103228
  H        -3.9681819667        0.1514901997        1.0907761602
  O         2.7235706172        3.6999437507       12.5508546537
  H         2.0890870270        4.3077901883       13.0351339909
  H         2.9824929785        4.1153207451       11.6971478952
  O        -5.3232411765       -7.3859970937       -0.2755671034
  H        -5.4361177238       -7.2905091114        0.7537883295
  H        -6.0204814989       -6.8255483502       -0.7189339058
  O        -2.0437176997       -1.5885480478        2.3753798538
  H        -2.9132805880       -1.1235644750        1.9796608495
  H        -1.5700672768       -2.1174552611        1.6946031719
  O         0.0451040883       -4.7549720600        1.6059059654
  H         0.3409431580       -4.1250955540        2.3228010721
  H        -0.6173306290       -5.2800518196        2.2712363789
  O        -9.9096342879        4.7097309971        4.1329788285
  H        -9.4218785984        3.8152189845        4.1555547416
  H       -10.7172733260        4.7276081911        4.7423739883
  O       -11.5232289044       -1.2550023147       11.5126200294
  H       -11.2530302742       -0.3753838152       11.8652942794
  H       -11.0542998393       -1.3513256172       10.6211481238
  O        -2.4112884832       -3.5887656256        4.1552690051
  H        -2.4208679787       -2.8235081941        3.4772454072
  H        -3.3749635046       -3.6794760106        4.4398579299
  O        -1.6927970180        0.3649810396        5.6808924486
  H        -2.1777508882        1.1798717509        5.8940921668
  H        -1.3592120352        0.4859038150        4.7366675945
  O         7.9890240743       -0.4932564828        8.1885446611
  H         8.2045305297       -0.6177462424        7.2570765581
  H         8.3621451547       -1.3587922708        8.5329208051
  O         2.8010530647       -3.2974187381        0.3126891468
  H         3.6793549229       -3.0372632327       -0.1412223546
  H         2.1199275115       -2.5971321674        0.0813121997
  O         0.4306437412        1.6165241789       10.3122894819
  H         1.2369594296        1.3371113912       10.9043604901
  H        -0.1912378716        2.0605213321       10.9300774955
  O        -0.7728828076       -0.7694981854        7.8528159506
  H        -0.9366521237       -0.1262687058        7.0180148113
  H        -0.2225998844       -0.1664682400        8.3851193722
  O        -3.2858556680       -6.4618126615       10.4463214468
  H        -3.2240936413       -5.5550323461       10.7721869790
  H        -3.9748688796       -6.8744783043       11.0322579145
  O         3.5545164715        3.9005616477       -2.5931616840
  H         4.3355478250        3.4647265378       -3.0179820011
  H         3.1575686043        4.5126114827       -3.2443712935
  O        -4.3447002593        2.0705948917        8.8735950752
  H        -4.5449115035        1.0788759766        8.8125097868
  H        -3.7611355475        2.2144138127        9.6008841020
  O         4.5476695066        0.2558492694       10.4247415940
  H         5.0713931553        0.9720031862       10.8196332007
  H         4.8022465622       -0.6375208428       10.8119061296
  O        -5.8800523343       -7.1855247273        2.5564513652
  H        -6.3282240804       -6.3810993705        2.8823769604
  H        -5.3090473582       -7.4852760796        3.2687921528
  O        -6.2402788134        1.8663984671        5.6755807458
  H        -7.1926969704        1.9931319740        5.3593247539
  H        -6.0917393417        2.5197872450        6.3837133795
  O         5.4782257121       -6.0960109541       -2.0579379667
  H         5.0153883468       -6.9863648153       -2.1362302626
  H         6.1273865944       -6.0162944926       -2.8115900939
  O         2.5415090686      -11.5868177557       12.2516095133
  H         2.6375743428      -10.6545574268       12.5137282783
  H         3.2715013637      -11.7871593798       11.6153811221
  O         0.7531252612       -3.1588810470        3.7168999426
  H         0.2673592302       -2.3467301090        3.9601992279
  H         1.6412789178       -2.7938169276        3.3739254543
  O        -5.7073737560       -5.9552258449        5.4138496785
  H        -5.4207473761       -5.2920527159        4.7804248215
  H        -5.1654792098       -6.7503295630        5.0938610927
  O        -6.3083096431      -10.2602214462       11.9133837006
  H        -6.5647521454      -10.1703445100       12.8206359731
  H        -5.8288369185       -9.3970395149       11.7064472276
  O        -5.8132547654       -3.6479627598        7.7913556057
  H        -5.3557057263       -3.3224399278        8.6013988236
  H        -6.7505357430       -3.4230134555        7.9776292984
  O        -7.3782086307       -2.4665423590       11.2803352937
  H        -7.6428007105       -2.9454149420       10.4500856822
  H        -6.4768361964       -2.8286760549       11.5921825407
  O        -1.4675521594       -8.8477851647        2.6632973603
  H        -0.7143427183       -8.3455409353        2.2458424635
  H        -1.0522401753       -9.6774566293        2.9682845186
  O        -4.1076020584       -0.8702357282        5.6090110930
  H        -4.3131432528       -0.1092114723        4.9166545672
  H        -3.1379645557       -0.8028531730        5.5852040520
  O         5.9734369138       -4.3129230005        2.6891103990
  H         5.0509560670       -4.5377358414        2.4769510173
  H         6.0109087879       -3.7530534361        3.4687683142
  O         4.8212678288        3.0309997048        1.5654304722
  H         4.0458084577        3.3805399259        1.0127136376
  H         5.2830709404        3.7790448805        1.9312005224
  O         1.1600397642       -5.2797217935       10.3356835111
  H         0.5285957012       -5.9525481369       10.6628762338
  H         1.4414700084       -4.7254083590       11.0590834361
  O         3.0666124129       -2.2904514032        3.0444149226
  H         3.4487305510       -2.6740728526        2.2313561174
  H         3.5280436693       -2.8830455254        3.7679261617
  O        -1.1122213321       -2.8855913530       12.6962145768
  H        -0.5134692350       -2.3850039050       12.1158918842
  H        -0.5723267189       -3.6298760757       13.1042752928
  O         4.0388934448       -6.2374654755        6.2780511341
  H         5.0104635217       -6.3112059264        6.1238119710
  H         3.6516622174       -6.7511730681        5.5496450882
  O        -8.3208332190       -3.8016824289       -3.3193812027
  H        -9.1628966509       -3.2635705904       -3.3343451730
  H        -8.5175074052       -4.5777703159       -2.7131793775
  O         0.9915097627        4.8889288945       14.0212504422
  H         0.8732331146        5.8597899166       13.8462058150
  H         1.3296517587        4.7888389046       14.9804223601
  O        -0.6066828716        0.6218123104       15.7249780716
  H        -1.0203625091       -0.1998640261       15.2099800331
  H         0.2518917627        0.2978215068       16.1344842408
  O        -3.9585139051        4.5203991151        4.2581649277
  H        -3.0718012633        4.5050282027        3.8802956713
  H        -3.8240927467        4.0831273068        5.1628667892
  O         3.8317856028        2.4331340007        4.0234281300
  H         3.2463551745        1.5990400995        4.1344693606
  H         4.2125639496        2.3780468817        3.0815478580
  O         7.9341809540        1.2330473302        3.9341198246
  H         7.2238340393        1.6254796353        4.5832900974
  H         8.7546444990        1.7949577103        3.9737122556
  O         2.2048920757        0.2480698344        4.3559385971
  H         2.7251482173       -0.3040327068        3.7191386649
  H         2.2835260758        0.0077186209        5.3252370870
  O         4.9392575361       -0.6586896623        8.0180103637
  H         4.7263792850       -0.1572408163        8.8683666256
  H         5.9578854978       -0.6365477817        7.8245869762
  O        -3.0764582398        2.9112906559        6.2421622477
  H        -2.2837534590        3.2827593846        6.7021901568
  H        -3.6631045421        2.6139329578        7.0109147980
  O        -9.8683997735       -0.3712986464        7.0335938884
  H        -8.8645955972       -0.4819167831        7.2565044011
  H       -10.0913960032        0.4495365927        7.4891741049
  O         7.6848789687       -2.8102493150        0.5379593524
  H         7.3241331757       -3.2201712901        1.3782927149
  H         7.8856949433       -1.8469518226        0.7435228448
  O        -1.5441914446       -3.1792349100        6.7677258446
  H        -1.4246376044       -2.3133282731        7.2118012019
  H        -1.8516424662       -3.0647685760        5.8525717789
  O        -5.0290709739       -3.3064037769        5.0297374420
  H        -4.9248616140       -2.3443312619        5.1383598665
  H        -5.3731697124       -3.5616207137        5.9812490358
  O        -1.4849388273        2.8771109130       12.1091677017
  H        -1.4395693430        3.2604638884       13.0049757395
  H        -2.2863018843        2.3842812054       12.2028428278
  O         0.3296043329        5.4697489990        5.3527950680
  H         0.5822764471        6.3552655552        5.8159048860
  H        -0.2578663169        4.9834906440        6.0378677152
  O        -3.0669065606       -4.0874539160       11.5183698650
  H        -2.2835231164       -3.5789119527       11.8090589508
  H        -3.6776667021       -3.6886177252       12.1802554033
  O        -3.4618443660       -2.8875772645        9.2066678947
  H        -2.7785082759       -3.1227464624        8.6232037070
  H        -3.1277525681       -3.1577465446       10.1017362859
  O       -10.2541911464       -6.9387653141        8.1352423723
  H       -10.6953356578       -6.1867704134        8.6280762321
  H        -9.6020126487       -6.4788641729        7.5078681037
  O         1.4777365646        2.3202963130        7.9254111570
  H         1.0499281037        2.2556945498        8.8130438898
  H         1.9776723744        3.1305489804        7.8864512616
  O         1.9004477519       -2.1087735509        9.0497346861
  H         2.0705070217       -1.3715162156        8.4324839202
  H         1.2949809534       -2.7848102849        8.5775384187
  O         6.0757534373       -8.7607197710       -4.4205477751
  H         6.4334317499       -7.8686352850       -4.1187016704
  H         6.7747737242       -9.3620202747       -4.0464703580
  O        -5.0118323502       -6.3497485577       -3.9962311039
  H        -5.2403284408       -5.6305736293       -4.6550357790
  H        -4.1599842275       -6.1712372127       -3.4746135289
  O        -1.4792197782       -5.8707782362        3.5065528536
  H        -0.9105927460       -6.2537589750        4.2041017312
  H        -1.7809723846       -4.9594984241        3.7430962408
  N         3.8355531792       -3.5574026009        5.3587571911
  H         4.3334904837       -2.9043672663        5.9652869386
  H         2.8540969393       -3.4159033645        5.6504920425
  H         4.0421137820       -4.4823941812        5.7033633662
