     193
 CELL 12.4294 12.4294 12.4294 90.0 90.0 90.0 i =    47720, time =    23860.000, E =     -1096.5140798608
  O         0.0095781798        0.6930714294       23.1037377899
  H         0.2680680693       -0.0083401215       22.3738562512
  H        -0.6937738322        1.2386110920       22.6579259241
  O         2.5910679964       -8.5402097479       17.7157079935
  H         3.0890925090       -9.4436498456       17.7717879468
  H         2.4712092429       -8.1511066053       18.6341623155
  O         1.8962187241       -6.8259964461       20.1259079646
  H         2.1809625877       -7.1051282049       21.0265071261
  H         0.9655113418       -6.9469386477       20.0415480674
  O         1.6262317385       -0.5424668822       20.8013237914
  H         2.2281881064        0.2537961297       20.9256792581
  H         1.5379165235       -0.5071718375       19.8269851865
  O        -8.9118922100       -4.5629151668       16.3601426846
  H        -9.6876625580       -4.2577532408       16.8603608937
  H        -8.8816013868       -3.9991119109       15.5138349664
  O         7.7018991504       -5.7214005514       24.9617583121
  H         7.3196129201       -5.0767964500       24.2982133582
  H         6.9445902230       -6.1107312229       25.4836651144
  O        -0.7648042090       -0.8649887221       12.6972106102
  H        -1.3671649922       -0.5450917216       13.3561904757
  H        -0.5970966020       -0.1939839077       11.9679237638
  O         6.6411505865        4.0714051596       22.3959521192
  H         5.8446741644        4.6575006969       22.3689344108
  H         6.4609061723        3.5535662565       21.5690427586
  O        -3.1739253509       -7.7027033874        9.3760545228
  H        -2.5445680968       -7.2918499880        9.9809529231
  H        -4.0453334580       -7.8211724678        9.7810358807
  O         2.0617045611       -1.6429471767       12.6640676917
  H         1.1100098285       -1.4632831519       12.8406360651
  H         2.0951484935       -1.9672536746       11.7494482559
  O         2.6009836320       -5.4045557813       11.8597748430
  H         3.0389107986       -4.9242594716       12.6341614214
  H         1.6726727877       -5.6727744542       12.1951479079
  O        -6.8416858868        5.4913440947       14.1333759090
  H        -6.1604893458        5.1198552690       14.7656059949
  H        -7.6649327523        5.4841761520       14.6946367203
  O        -7.2110970052       -2.2079281271       21.3194145031
  H        -7.5126891555       -1.4991715779       21.9145176535
  H        -7.9236699360       -2.8801707116       21.2126472313
  O        -0.0071019190       -3.5687285283       14.7346061136
  H         0.4194082209       -2.7893155465       14.3871601176
  H        -0.7764092153       -3.1661332682       15.1195774805
  O         0.0405217154        0.8709090383       15.8597394068
  H        -0.2575853666        1.8023439193       16.1365903589
  H         0.6124842449        1.1418840406       15.0351599331
  O        10.7735804480        1.0850756948       19.5640237829
  H        10.2812850165        1.4207108032       18.7537784351
  H        10.8710121431        0.0868487274       19.3849622563
  O         6.8387528348       -4.0439047334       10.0369004008
  H         7.3539992407       -4.3782132978        9.2534969661
  H         6.1838667689       -3.3761860130        9.6371795091
  O         3.2508237774        1.7028603620       21.1687987451
  H         3.8080783180        1.1841868395       21.8105064588
  H         2.6075893351        2.1281342623       21.7300875054
  O         1.4789919918       -0.7304236730       17.6081612537
  H         0.9929215235       -0.1048425504       16.9956140972
  H         2.4561418897       -0.5850861367       17.4545078544
  O        -1.1555457375       -5.6515956646       20.0990105444
  H        -0.6363093692       -5.0666922115       20.6547288048
  H        -2.0718037917       -5.7293569172       20.4248115466
  O         6.3258211087        2.5167301536        7.5598646462
  H         6.9832257747        1.7622431842        7.5807681302
  H         6.8395808135        3.2080964489        7.0684859403
  O        -0.0845689253        3.1692447774       20.4224057211
  H        -0.3276673156        2.2240871592       20.4035805664
  H         0.3866850224        3.3090954979       21.2520804420
  O         7.3879085973        0.6215538588       23.5571710256
  H         7.6523895777        1.1659634149       24.3141129260
  H         7.7618122108       -0.2817664680       23.6405837631
  O        -2.0596102719       -7.3845659026       11.9404150356
  H        -1.9860212952       -6.4576320786       12.3582281675
  H        -1.1474500931       -7.7305428939       12.1013479128
  O        -3.5286883982        2.3513804603       17.6576494246
  H        -3.4311105565        3.3165456262       17.5625789211
  H        -4.1425081348        2.0041640747       16.9639002941
  O         8.2871391169       -5.1975099682        7.6805036444
  H         8.2092738828       -6.1320908803        7.3181020410
  H         8.5810596390       -4.5730195245        6.9149526485
  O         4.6675618017      -12.4225828476       22.8030357859
  H         4.3286143163      -12.3677956248       23.7355520450
  H         5.6413512745      -12.1282235778       22.9183059653
  O         3.9392064747       -3.2078659754       13.9633312203
  H         3.4395034906       -2.7156142313       13.3241649595
  H         4.9515152493       -3.2291748736       13.7220943584
  O        -2.4925014197       -6.6746339349       15.6593342334
  H        -2.0378458203       -6.1675170077       16.3667318808
  H        -2.5017317361       -6.0383271588       14.8785885150
  O        -2.3055814815      -10.0911102683       22.4739495828
  H        -2.7319464734       -9.9681871223       23.3409109869
  H        -2.5035770566       -9.2306596719       22.0474429383
  O        -3.3296015455       -2.7394801699       18.4051473182
  H        -4.1832561809       -2.2878484128       18.8429948540
  H        -2.5224475718       -2.4603758253       18.8709678664
  O        -4.2781548039       -2.0277862482       23.9927519489
  H        -4.8235157852       -2.5465226467       23.3156542261
  H        -3.3396363273       -2.3980686422       23.8974628552
  O         4.4763939912       -8.4325492833       12.1095418540
  H         4.8327929603       -7.7870088535       12.7352645217
  H         4.2961009966       -9.2690968132       12.5630049598
  O        -2.2913957930        0.1494037961       14.5976248579
  H        -3.0741589437        0.5772782201       14.9290385028
  H        -1.5016501273        0.4601088615       15.1022377522
  O         9.6954417950       -4.5854604635       13.8043236611
  H         8.8116788294       -4.8409281901       13.4684289557
  H         9.5000703751       -3.9267307451       14.5791884043
  O         8.2752014872        3.1437293267       12.5619086060
  H         7.6148278229        3.4421895946       11.9027180287
  H         8.8734022777        3.9195634030       12.5684925211
  O         5.1411285345       -5.1094573515       18.5169810180
  H         4.3356474815       -5.2791838627       19.0486920432
  H         4.7246883710       -4.9731379640       17.6166345850
  O         6.5695117231       -2.7280907758       13.7666824220
  H         7.3464315542       -2.6898255460       13.1839485755
  H         6.8987858316       -3.2846000537       14.7298828874
  O         2.1427816187       -2.5569180693       22.6501615476
  H         2.1719040080       -1.9793199351       21.9094107151
  H         2.7261154005       -3.2615782138       22.3858047569
  O         7.5484582140       -7.7960696324       15.9249943409
  H         8.4425237550       -7.3064591898       15.8132913770
  H         7.6340160185       -8.7206649025       15.5216762178
  O        -5.4763074815       -1.4788609868        6.8661776261
  H        -6.2290971545       -1.7524228640        7.5004866988
  H        -4.9746182538       -0.8229971156        7.4218920465
  O         4.6849771873        6.2659288976       22.2055995325
  H         5.3287082340        7.0128164253       22.4060296539
  H         4.0662800123        6.3866840784       22.9716534457
  O         3.7724232408        0.5979288125       25.3057527474
  H         3.0565724167       -0.0135733438       25.6351882910
  H         4.6202997900        0.4924843432       25.8105509320
  O         0.8207515302        4.2764732141       14.0714024033
  H         1.5643416316        4.8745299875       14.3929353410
  H         0.3665994492        4.0962203619       14.9614337498
  O         7.8452486809        1.8822857466       14.9523925445
  H         7.1646453682        1.2036622058       14.8692707338
  H         7.9850987359        2.3670873335       14.1144084613
  O        13.7624817032        1.8073740546       13.6205698029
  H        13.4865702506        2.8140800015       13.7847363252
  H        14.6938757773        1.6370303818       13.4499952960
  O         5.9428738351       -0.0799586490       14.6602068765
  H         6.2343284557       -0.9897640543       14.4852450914
  H         5.3609455514       -0.1077266573       15.4633462125
  O         8.0890740815        0.5507861182       20.9485800237
  H         8.1585290328        0.9019974850       21.8802155591
  H         9.0454909452        0.8490398258       20.6819459978
  O        -0.0897240550        3.4682077087       16.5993079438
  H         0.7632641703        3.7842505487       16.9640473809
  H        -0.7384915092        3.6944179334       17.2528692733
  O        -8.1064640095       -0.3506520558       17.3367109707
  H        -7.5471169689       -1.0036348710       17.8169082363
  H        -8.0091987565        0.5092983693       17.8197333259
  O        10.4680926883       -3.0848467387       11.6763550811
  H        10.3577029091       -3.5308103119       12.5298465217
  H        10.9197804073       -2.2194609344       12.0039179980
  O         1.3191500314       -3.3612775024       17.9201078882
  H         1.2641157853       -2.4386283033       17.5361354594
  H         0.4977806234       -3.8023190873       17.6589161508
  O        -2.6676943251       -2.3939427421       15.5628155357
  H        -2.6280230771       -1.5082386390       15.1488108734
  H        -3.1081166004       -2.1947065116       16.4234879429
  O         1.7320799653        3.4334006294       22.8961355101
  H         2.5633368850        3.8962871148       23.2162250366
  H         1.3483388975        2.8587910454       23.5987702500
  O         2.7933558390        5.5156460730       15.4402308179
  H         2.9156912076        6.4170049943       15.7057891557
  H         2.8002100297        5.0050855149       16.3206907136
  O        -0.4550752050       -3.4246410922       21.6875655383
  H         0.5312776857       -3.4462799262       21.8326478442
  H        -0.8442489408       -3.5081782002       22.5772483698
  O        -1.0706749949       -1.6874356180       19.5058124301
  H        -0.1259959898       -1.6083051700       19.1846737198
  H        -0.9691083293       -2.2782653262       20.3221658291
  O        -5.1486277996       -7.2365261086       18.7322446711
  H        -5.9638982775       -6.6971834884       18.6881179218
  H        -4.9467155642       -7.4330252473       17.7961630422
  O         4.2268646284        1.9055350823       18.5569870612
  H         3.7349395056        1.5714728779       19.3526557829
  H         5.1071799784        2.2908185709       18.9995219463
  O         2.8319985923       -3.8550534396       20.2932172793
  H         2.3335453149       -3.5796675789       19.4584820870
  H         2.7734796822       -4.8702233666       20.3212137784
  O        10.4466325351       -7.8949552489        6.7574696377
  H         9.6113055875       -8.0788431686        7.2286042567
  H        11.1646293285       -8.2259171722        7.4153142756
  O        -1.2571682494       -4.9258934607        5.0699076881
  H        -1.7525302351       -4.1328339592        5.3266819423
  H        -1.2364628699       -5.4516763222        5.9567227991
  O        -0.1027679676       -5.7556536619       12.9127088853
  H         0.2038710203       -6.5978597000       13.3851476752
  H        -0.2087187902       -5.1082849250       13.5746233177
  N         7.0872832289       -4.1604740983       16.0120177903
  H         7.7904067282       -4.8691067206       15.8922517818
  H         7.3228118703       -3.5126614822       16.7517603472
  H         6.1272513078       -4.5863008751       15.9811914780
