     193
 CELL 12.4294 12.4294 12.4294 90.0 90.0 90.0 i =    65320, time =    32660.000, E =     -1096.4668930014
  O         2.3714517267       -2.7201558721       31.4632500165
  H         3.2849551772       -2.3940270531       31.5112367542
  H         1.9435181902       -1.8442862962       31.7459486502
  O         4.7412716563       -9.9154488688       27.6758910923
  H         5.5639013407      -10.4076012286       27.3773717470
  H         5.0856369464       -9.2872758130       28.3460702892
  O         7.5117802398       -5.2938317671       30.5696241435
  H         8.4255419895       -5.5423908739       30.8081088017
  H         7.1253449426       -6.1128489662       30.2467716668
  O         4.8008178425       -0.9402826582       31.3847874551
  H         5.0523101709       -0.6477499950       32.3014123584
  H         5.4683391466       -1.6379467941       31.1695117968
  O        -5.4696150790       -6.0407134831       26.5560559553
  H        -6.0072655538       -5.3479507038       26.9476283645
  H        -4.9690100348       -5.6374534779       25.8449488099
  O        11.4227575103       -6.1300985629       35.8753152248
  H        10.5870587383       -5.7261025602       35.5396168055
  H        11.1780562505       -6.2437761032       36.8374066350
  O         4.0358950914       -2.2362370262       22.0908008532
  H         3.0784491060       -1.9905869406       22.2216922517
  H         4.0881415618       -2.8119506823       21.3082583896
  O        10.8720595563        3.3772231300       32.5742486110
  H        10.1033238123        3.9736616570       32.6089979724
  H        10.7069777240        2.8688588022       31.7503355147
  O         0.1098472505       -6.8673046571       19.0121581388
  H         0.5678926080       -6.2388237505       19.5702556618
  H        -0.3456673278       -7.5967396498       19.5225386757
  O         4.0001341480       -4.4251763493       23.6922776778
  H         3.9850688771       -3.8601683090       22.8325465259
  H         3.6937018755       -5.2802239909       23.2387291256
  O         6.7487943080       -6.8637275348       21.8059444588
  H         6.8392434928       -6.2381069497       22.5532222820
  H         6.1092572121       -7.4835894388       22.1905834158
  O        -1.5630747076        5.0360926693       25.8715362811
  H        -0.9398789776        4.2675922735       25.7700215026
  H        -2.4008979270        4.4983537032       25.7518365998
  O        -5.2551693993       -2.2484745681       33.5636411736
  H        -4.5662954519       -1.5944888280       33.8876149284
  H        -5.5378158352       -2.7919064255       34.2857239875
  O         2.1427578420       -3.8948467243       25.5894431415
  H         2.9523681902       -3.9150568423       24.9709459484
  H         2.3380221348       -3.1690617306       26.1821461823
  O         2.9145406771       -0.0714914236       24.8859140504
  H         2.7383122900        0.6229576563       25.6072723535
  H         3.8049305166        0.1764551885       24.4886594884
  O        16.0048474526        0.0803337344       28.7716921692
  H        16.2038808856        1.0084990433       28.6582824397
  H        16.3322970430       -0.2495871548       29.6173559318
  O         9.5041748544       -4.6607104553       21.3381035054
  H         9.8420014064       -5.0592840498       20.4681797851
  H         8.6520618272       -4.2554624854       21.2041055621
  O         7.2770444072        2.0949591020       30.7145513195
  H         7.8164685784        1.2836676608       30.5865670854
  H         6.4847755780        1.8473043461       31.2747241698
  O         3.4564126163       -2.0570196223       26.9033330142
  H         3.3554241869       -1.6150993560       25.9811218074
  H         3.5656729362       -1.2713034458       27.5660469124
  O         5.6278511468       -7.8823504459       29.7894848535
  H         4.8337857061       -7.5488131418       30.3822524515
  H         6.1793812550       -8.5819670950       30.1866260060
  O        11.3314221465        2.2183799586       17.5374256780
  H        10.9787749587        1.5081701194       16.9410901712
  H        11.2867808242        3.0797064665       17.0286417552
  O         2.2251863464        2.7411492836       30.0786807173
  H         1.3649075297        2.3127766814       30.1754676574
  H         2.5223596697        2.9440932414       30.9812379935
  O         9.8103674351       -0.5844228405       33.9745529725
  H         9.9548872504        0.2617234491       34.4543375286
  H        10.1730680493       -1.2935467318       34.6535635403
  O         3.2036221585       -9.5484711927       20.3731571268
  H         3.4021603246       -8.6187345329       20.7114113512
  H         2.3965782890       -9.8954602020       20.7597868503
  O         0.6457719292       -1.0200010016       27.9750096916
  H         1.3154854354       -0.3260554918       28.0631154154
  H         1.0217056878       -1.8194314431       28.4055876981
  O        10.1101468573       -5.2877627991       18.7986330078
  H        10.9432076240       -5.7895133440       18.6166865282
  H        10.3929381330       -4.4182814975       18.3590899407
  O         8.3317687903      -10.3756978799       34.3703882210
  H         8.3413056887      -10.9062242112       33.5248853456
  H         8.1041190376      -11.0618557106       35.0995929355
  O         6.9280158417       -4.2546095010       23.4861467652
  H         5.9532083362       -4.3266479255       23.6394445925
  H         7.3042186671       -3.6069923727       24.1461237249
  O         2.0100657224       -6.8549625469       24.8981784304
  H         2.8493590482       -7.3957828148       25.1927597919
  H         2.0047270656       -5.9600622967       25.2222971713
  O         1.6575853565      -12.4818004227       31.7044681034
  H         1.2892058125      -11.8443753205       32.4538465730
  H         2.2885164110      -12.0205807085       31.1288858267
  O        -1.5378784947       -3.0380796059       29.8639371233
  H        -1.4268837197       -2.2026863130       30.4190235477
  H        -0.6643552280       -3.2828527483       29.4728783523
  O        -1.8801482268       -2.7359742942       35.5688924024
  H        -2.2909826349       -3.3961772370       34.9342031215
  H        -0.9614542159       -3.0648090887       35.7236379275
  O         9.7999855485       -8.9134897055       23.4406623188
  H        10.1499312940       -8.0840160439       23.0785384973
  H         9.2802192174       -9.2956220424       22.7392241457
  O         1.5319133261       -0.9159457299       22.3898773220
  H         0.8832153347       -1.2647946920       23.0404177570
  H         2.0520334801       -0.3464525482       23.0248358445
  O        13.0305465087       -3.9893583309       23.0035703078
  H        12.8486779634       -4.9918964689       23.2193219870
  H        13.7448605666       -3.8937703939       23.7813130041
  O        13.1235502394        1.8431906579       21.0361727871
  H        12.3446802081        2.4136502593       20.7584784161
  H        12.8222068512        1.5500880148       21.9546718563
  O         8.4133602447       -8.5565419177       27.9543772272
  H         8.9857849316       -8.3360146368       28.7095050325
  H         7.7647820641       -7.8705184796       27.7087269910
  O         8.5267987624       -2.5537173490       25.1044493026
  H         9.2850260110       -2.8212636153       24.4853516805
  H         8.7427723869       -2.7541143541       26.0285358604
  O         5.1100840671       -4.5644673298       32.8790733955
  H         5.7155614657       -4.0630411253       32.3375499003
  H         5.6011917324       -5.3397935808       33.2476456817
  O        12.8245390991       -8.9512553242       25.1348080700
  H        13.2037250977       -7.9775187471       25.0205264495
  H        12.6288501687       -9.3007820154       24.2166512001
  O        -3.8900848159       -0.4360365428       17.3903328843
  H        -4.4430420013       -1.1669725114       17.6837593216
  H        -3.0739138008       -0.5343462352       17.9341676764
  O         8.3702929738        4.5601280108       32.2675071338
  H         7.9775847563        5.0593785371       33.0263901418
  H         7.7000023681        3.8963746629       32.2233658211
  O         8.2115067450        0.0318445604       36.9036770179
  H         8.3129641689       -0.9513793197       37.0848732380
  H         8.8532398044        0.6110462727       37.4729515610
  O         5.0737835718        3.5166417725       23.3018231167
  H         5.6234489272        2.7344263792       23.1063495896
  H         5.0564131568        3.7027253736       24.2842221486
  O        11.8815360291        1.4359994220       23.4481958326
  H        12.2386381683        0.9910756769       24.2725003368
  H        10.9602265991        1.7841829145       23.7337950922
  O        17.8949867250        0.3978834805       23.4659840595
  H        18.6403577018        0.4661919514       24.1165667829
  H        17.8346429758       -0.5286840813       23.1323784778
  O         9.7918148712        1.6359511428       25.9659828965
  H         9.0409056410        2.0961887692       26.4000312393
  H        10.1400867852        1.1210867564       26.7334211136
  O        11.0044613196       -0.6059886482       31.2951601183
  H        10.5404704892       -0.6307185909       32.2187512987
  H        11.9241311553       -0.2372155520       31.4880899244
  O         2.0765482782        1.6822591118       26.5945548262
  H         2.6744858623        2.4141793601       26.8118975017
  H         1.2862047588        2.1850100434       26.3334044706
  O        -1.7429020750        0.3174518326       28.0656251462
  H        -0.9254523553       -0.2255384969       28.0198220689
  H        -2.4262614205       -0.2952172148       28.4434669410
  O        13.5293298844       -4.6899498928       20.6085274170
  H        13.3438450375       -4.2278680938       21.5285614423
  H        14.1749890119       -4.1087697551       20.1974615495
  O         5.4531973242       -4.1859764605       28.0625706196
  H         5.2967495853       -3.3602804166       27.5404405601
  H         4.5884900180       -4.5760578819       28.1207572441
  O        -0.0534806186       -0.8972365281       25.1007470627
  H         0.2196850848       -0.9182074443       26.0525591932
  H        -0.9669358485       -1.3001233619       25.0690363867
  O         5.4605000324        1.5758982159       33.0092991204
  H         5.7779099168        1.3078945161       33.8898560315
  H         4.7193608773        2.2050268839       33.1812598097
  O         4.6842411825        4.5232882601       25.5712706284
  H         5.4624208098        5.1337333477       25.8508648236
  H         4.7543054799        3.9167425312       26.3205122650
  O         3.4632079903       -6.5061118058       31.0740383700
  H         3.7274661254       -5.8898092510       31.7702100990
  H         2.5664803406       -6.8832646842       31.3149455863
  O         1.0913370499       -3.6575817299       29.1550088680
  H         1.6051574992       -4.3576184632       28.6703684673
  H         1.5873616655       -3.6299039586       30.0000637138
  O        -1.4078858351       -7.4381286526       28.6243768645
  H        -1.0963971293       -6.6572155459       29.1339729086
  H        -1.4622944753       -7.2549993913       27.6043268857
  O         7.2185996174        1.3783764785       27.5606621890
  H         7.1435376174        0.6986827934       28.2400823478
  H         7.7283305353        2.2350506178       27.8177510112
  O         6.6099549312       -2.8298335590       30.2447515711
  H         6.2139710725       -3.2066492877       29.3737021525
  H         7.0033255187       -3.6061735238       30.6333202524
  O        14.1511827283       -8.1361715013       15.4960429714
  H        13.1834838695       -7.8959573151       15.6139789316
  H        14.3643491329       -8.6449594346       16.3856454617
  O         3.0654679693       -5.5344623818       15.9375523564
  H         3.2236838296       -5.8691946632       16.8629638794
  H         2.8020960316       -6.3169801221       15.3707411768
  O         3.0278717246       -6.5177928893       21.7272184784
  H         2.5361420976       -6.9179376351       22.4156483273
  H         2.5161398070       -5.7861522887       21.4147657743
  N         8.8000376186       -3.5911103979       27.7129588885
  H         9.3620901942       -4.4206101391       27.3548724139
  H         9.3753448137       -3.2158665267       28.4827922467
  H         8.0472845771       -4.0894820149       28.2045984463
