     193
 CELL 12.4294 12.4294 12.4294 90.0 90.0 90.0 i =    86120, time =    43060.000, E =     -1096.5664670041
  O         6.3395858344       -2.0293050220       42.0453747849
  H         5.5571730449       -1.7057156410       41.4398760452
  H         5.9807378458       -2.2331626949       42.9982336790
  O         7.2667325920       -7.7469063209       39.4745074422
  H         7.9504308069       -8.4050556279       39.5731494035
  H         7.7991793813       -6.9743087538       39.7730206037
  O        11.3357866470       -2.7174603186       41.9187303643
  H        12.1763714173       -3.1310410710       41.5515744777
  H        11.1528700264       -3.0916344084       42.8340888860
  O         8.1382855284        0.1121764721       41.6154549492
  H         7.5909837702       -0.7419048883       41.7401262786
  H         7.4911391142        0.8213420354       41.8789044014
  O        -2.7148292304       -5.5648102276       37.4551008467
  H        -2.5192459250       -4.7974581719       38.1188947410
  H        -2.4182663067       -5.3326259200       36.5001815977
  O        15.1822564776       -3.2374428156       48.7870373783
  H        15.8817156810       -2.7230675915       48.3880458596
  H        15.4372326997       -4.1574504509       48.8937370889
  O         6.8420791547       -0.7372494104       33.9833879469
  H         7.4837680813       -0.9072426314       34.7047510097
  H         6.6570058210       -1.5994254501       33.5632414791
  O        14.4264031523        3.9816858127       43.6948733396
  H        14.2280624051        4.9444949678       43.8013851115
  H        14.4172904308        3.7368583703       42.7422352633
  O         6.0964213119       -8.1895407394       31.6080447065
  H         5.7268280038       -7.3968776376       31.0753743753
  H         5.3979088791       -8.4935605214       32.2436880018
  O        11.3554118011       -3.5055091179       32.2476934513
  H        11.5143407775       -2.5776893738       32.4418954153
  H        10.5377230300       -3.7596377745       32.6776675165
  O        10.3310710910       -4.9493202816       34.7534931312
  H        11.2742518912       -5.2368706413       34.6103704100
  H         9.7850211692       -5.2144116871       33.9519961277
  O         2.4671299600        6.4313934584       36.6980957596
  H         3.2739784770        6.0164175843       36.3413790893
  H         1.8304756930        6.3883359193       36.0240957471
  O        -1.4894316223       -0.5030758342       45.9331317445
  H        -1.1363193182       -0.3066339280       45.0015645390
  H        -0.6829768249       -0.3527346241       46.5209120936
  O         7.8736391033       -2.2308691020       38.1004455578
  H         8.2647136133       -2.1034405461       37.1960198997
  H         7.1319007486       -1.5559258802       38.1847790889
  O         6.2672836432        1.8734568832       36.1811181068
  H         6.1977991492        2.7598322452       36.6150160267
  H         7.2215053286        1.8010195720       35.9966163158
  O        16.9402915699       -1.0044328246       40.3992998305
  H        16.4276664154       -0.3877674432       40.9160586771
  H        16.2295972536       -1.6287185379       40.0065070788
  O        16.6827491217       -4.4274022776       33.3826969462
  H        15.7529138276       -4.1500808856       33.5755939665
  H        16.8295588947       -5.1785210811       34.0091733334
  O        10.1265980430        2.9519447076       43.2308354345
  H         9.9568926131        2.9238679279       42.1976546968
  H         9.3627992911        2.5110922267       43.6358380524
  O         5.7472780170       -0.4953828854       37.8253644218
  H         5.9873850460        0.2440343264       37.1744905977
  H         5.2986875712       -0.0188676244       38.6333528150
  O        10.6968750724       -6.5705981964       43.2223580531
  H         9.9560597150       -6.1182717621       43.7991673394
  H        10.5387844652       -7.5457862295       43.4672102207
  O        14.3310661976        3.7453749774       28.5250465896
  H        14.1409131643        2.9854669074       27.9216254776
  H        13.9232975888        4.6158535727       28.1125435241
  O         4.4148524287        5.1843981326       40.1963542802
  H         5.2143066472        4.5949847917       40.1989505278
  H         3.7087385929        4.5722477717       40.2659637891
  O        14.1282100243        0.2710314577       42.7903404950
  H        13.3934480932        0.7093992014       43.3888630111
  H        14.5486140163       -0.4556228312       43.3480496311
  O         6.2441167187      -10.5396098807       30.3336860107
  H         6.2493173282       -9.5676301475       30.6020845566
  H         6.0584052001      -11.0727332236       31.1315500724
  O         4.1671648458        1.7227221011       38.6289799774
  H         4.5710914391        2.5597931264       38.2439134322
  H         3.8024378659        1.9456931006       39.5377303227
  O        13.5608756602       -3.9845479686       28.4260903394
  H        14.3304062760       -4.1599824953       29.0547133988
  H        13.9845167258       -3.3454369391       27.7609986761
  O        12.7250648548       -8.5971788453       46.9917363786
  H        12.4248262795       -9.0714332574       46.1589392164
  H        12.2053627363       -8.8551436908       47.8525158015
  O        14.0783566488       -3.1253011667       33.7734560206
  H        13.2876044656       -3.5254745868       33.3109795453
  H        13.9882991815       -3.4556508930       34.7100445271
  O         6.8010338596       -4.8421316170       37.6302105940
  H         7.6934364653       -5.2004076126       37.4276432921
  H         7.0605377123       -3.9332050121       37.9361049510
  O         3.7931301033      -10.9451595978       41.5529694452
  H         3.3795812750      -11.1919279307       42.3723763538
  H         4.6953952873      -10.6490979920       41.7916422403
  O         2.3729624641       -2.2802844433       39.1921708439
  H         1.7703086882       -1.4512516340       39.4492426346
  H         2.4452371150       -2.4143524796       38.2285520962
  O         3.1821509103       -1.2879054301       44.4610067336
  H         3.8343828596       -0.6896425181       44.8382226893
  H         2.8015783742       -1.7686321714       45.1951054923
  O        13.0920448234       -5.8994894208       34.4036055757
  H        13.2644830957       -5.8095269695       33.4059892778
  H        12.8561434305       -6.8304245973       34.5045711997
  O         4.8615471766        0.9012874446       32.5664666751
  H         5.4947351567        0.5429720293       33.2540131605
  H         4.5477885414        1.8144114306       32.9178702479
  O        16.8343099554       -1.0505952644       35.4427383779
  H        17.6049754970       -0.8907840577       34.9207657180
  H        17.2410698913       -0.9479494524       36.3087150637
  O        16.4025233466        3.4385236575       32.9665664377
  H        15.6139569248        3.5271446649       32.3408462069
  H        16.0022783523        3.3984104911       33.9193084211
  O        10.9931072880       -7.5240514694       38.6802632662
  H        11.8349616445       -7.0524875863       39.0355538892
  H        10.4670833965       -6.8137547855       38.1773690080
  O        12.5655094317       -0.3821655548       36.0841332278
  H        13.4493494271       -0.2093099181       36.4145777977
  H        12.2559027643       -1.3032821623       36.4175725359
  O        13.4176101660       -5.6016815059       44.2539490663
  H        13.8091667958       -4.7680991044       43.8027306720
  H        12.5624451831       -5.7764250580       43.7998565474
  O        17.6007946558       -6.0597363741       35.5460936619
  H        18.1278444712       -5.5167760846       36.1786775874
  H        18.2565818187       -6.4439922672       34.9182894396
  O        -2.3474615043        0.3989052353       27.5191791870
  H        -3.0794407516        0.1171377538       28.1765570851
  H        -1.4503739468        0.0009037917       27.7411229143
  O        12.5157658811        2.2578192470       44.4375532261
  H        13.1008544286        2.9967382577       44.0744334349
  H        11.6165848160        2.3793013723       44.0045494323
  O        10.3210779252        0.4955452632       49.7456663952
  H        11.1946830173        0.1393976915       49.5366400028
  H        10.0965270918        0.4071213505       50.6843809177
  O         8.8950725225        3.3447260663       35.2295214242
  H         9.0596382661        2.7727523003       34.4006132615
  H         9.7673844368        3.5321284235       35.6797058820
  O        15.4429710387        3.5062448617       35.3924764930
  H        15.3897213801        2.5438446478       35.6797895714
  H        14.4284762208        3.6662111544       35.1395851095
  O        21.3529613612       -1.0187193521       35.6543507017
  H        21.7267817484       -0.3036710371       36.2820702975
  H        22.0217141805       -1.1457732044       34.9497000979
  O        13.6885641590        2.0489694314       38.8214043670
  H        12.9703559916        2.4399202217       38.2178580153
  H        14.3544661863        1.7652669018       38.1936749441
  O        15.6230669534       -3.9456277540       42.8134050502
  H        16.2802889538       -4.6471611505       43.1479000239
  H        15.8313205430       -3.1182658625       43.3152970003
  O         5.4901547265        4.0677274361       37.6732626788
  H         6.2577044274        4.5593206571       38.0817083534
  H         4.9887322304        4.7693847403       37.2090026729
  O         0.7510454602       -0.1705801503       40.0033977210
  H         0.9805468819        0.7655157082       39.6400959745
  H         1.0186357348       -0.0766307418       40.9476886981
  O        18.6491090346       -2.9126407808       32.6523327372
  H        17.8501082189       -3.4549060048       32.9775431736
  H        19.4081066469       -3.5312923735       32.8705756243
  O         9.9570527773       -3.6915920575       39.4243582412
  H         9.1951376318       -3.1836506513       39.1585280597
  H        10.4374665650       -3.2156564909       40.1516348244
  O         2.8154503490        0.7173986137       36.5429313289
  H         3.5795089825        0.9169118279       37.1404328877
  H         3.1362918295        0.0903922054       35.9037388513
  O         9.0440664551        1.5470336453       45.4691906227
  H         9.6473948871        0.8729880647       45.7395232289
  H         8.2232209784        1.0475480070       45.4037021733
  O        11.4776457470        3.2361913110       36.7426726103
  H        10.8085030613        2.5598993414       36.7697840847
  H        11.3697612334        3.8589849733       37.5948759152
  O         8.8823497461       -4.9799648090       44.5845848674
  H         8.2045401090       -4.6847390069       43.8578605169
  H         8.2703505012       -5.4714963133       45.1963836385
  O         5.0344192628       -5.9843379037       42.6648649759
  H         5.8069785362       -5.3981665183       42.4913223265
  H         4.6088481549       -6.1884552942       41.8131622067
  O         1.0845045181       -6.1923696115       39.2888292764
  H         1.0766894881       -5.3572766833       39.8408773169
  H         1.6483147438       -6.0493573907       38.4620915944
  O         9.7818041597        2.9439175086       40.5961380014
  H         9.6728843667        1.9693873737       40.1825837736
  H        10.1903154326        3.5674071022       39.9154640572
  O        11.0981618145       -0.0424879557       42.9766338304
  H        11.2620721527       -0.8062688521       42.3981231211
  H        10.1665396108        0.2446584511       42.7573680288
  O        21.5380388220       -5.8772838822       28.5441815010
  H        22.0791028726       -5.2433636193       28.0292778542
  H        22.1804438359       -6.2530817561       29.1904297243
  O         7.4232764608       -4.5097199685       30.0523032053
  H         7.9983766478       -5.0103859775       29.3885066843
  H         7.2619535029       -3.5941850172       29.7212084321
  O         7.3016323517       -7.0380476597       33.7417404733
  H         7.9038185305       -7.6195629767       34.2808394391
  H         7.0086110352       -7.5125837678       32.9229788685
  N        11.8814019198       -2.9376085707       37.0118356981
  H        12.4800265292       -3.6094652895       36.4389118451
  H        12.0334224104       -3.2757070806       37.9411662629
  H        10.9090162686       -3.1295418262       36.8198908583
