     193
 CELL 12.4294 12.4294 12.4294 90.0 90.0 90.0 i =    43720, time =    21860.000, E =     -1096.5395389228
  O        -1.2729072329        1.2586642331       20.0767957640
  H        -1.1842888229        1.1019723901       19.0794601195
  H        -2.1365970520        1.7963333929       20.1820796215
  O         2.0872540078       -8.2993745523       16.0989976271
  H         2.5652306071       -9.1968876720       16.1310718222
  H         2.1065683027       -7.8869538746       16.9895461892
  O         1.8652482383       -6.3993504514       18.4142529911
  H         2.2691322170       -6.5350166852       19.2979407859
  H         0.9036527481       -6.2575148738       18.5629991907
  O         0.0062483347       -0.0723083528       17.8148498712
  H         0.9701007780        0.0957856810       18.1255523577
  H        -0.2472456521       -0.9174598734       18.2436443703
  O        -9.4767819470       -4.1198304791       14.5206202199
  H       -10.3016919556       -3.6569797578       14.7820981999
  H        -9.2219775888       -3.5946731444       13.7302742282
  O         6.2218613247       -5.5267131534       22.7787547747
  H         5.9408985351       -5.2939726458       21.8971385068
  H         5.4317354740       -5.8927575416       23.2041297920
  O        -1.4085696951       -0.3952997260        9.7488914565
  H        -2.1830092457        0.0876868963       10.1576965266
  H        -1.2348374089        0.0388607835        8.8875583593
  O         5.8964238049        4.5104152091       20.6155657656
  H         5.0453126644        5.0418844274       20.8274175667
  H         5.6435632787        3.6734044742       20.1397197181
  O        -2.7215436860       -7.4131508678        7.2790421249
  H        -2.3841681215       -7.3481256026        8.2699233456
  H        -3.4342257975       -6.7238695135        7.2971170774
  O         1.2258557758       -0.8478520771       10.3921152900
  H         0.3056227033       -0.4732999918       10.4189298001
  H         1.1087245420       -1.4782729654        9.6183165935
  O         1.8235350683       -4.5320252725       10.0607288108
  H         2.2227555873       -4.0579077243       10.8876913715
  H         0.9166348707       -4.8122812864       10.3268322825
  O        -8.2916376070        4.9261021708       11.7162400395
  H        -7.6532469465        4.3660383828       12.2756697145
  H        -9.0492028285        5.3048265031       12.3215465920
  O        -8.1376960138       -2.0002142266       18.0007682088
  H        -8.3598240269       -1.3256304056       18.7322010766
  H        -8.9350380667       -2.5880167240       17.7720668838
  O        -0.8872388461       -3.3298110401       12.7929136742
  H        -0.1834472946       -2.6949250310       12.8772574966
  H        -1.7218581588       -2.8212958941       12.9484637760
  O        -0.8188494981        0.8406582702       12.8831121125
  H        -0.9734152693        1.5349689108       13.6133377779
  H        -0.4647753448        1.4850497416       12.1596539715
  O         9.9987336216        0.5868813942       16.3587089120
  H         9.9440973517        0.8444781618       15.4102766296
  H        10.5992323895       -0.1465135530       16.5713450424
  O         5.4342541025       -3.8267604867        7.5201387804
  H         6.1502447590       -4.3277057505        7.1090519545
  H         5.2572933968       -3.1481786022        6.8142173227
  O         2.5191691411        1.0116139566       18.4631235562
  H         3.2942717165        0.6296685899       18.9778940267
  H         2.1232734089        1.7234638494       19.0192184253
  O         0.8217910466       -1.3175203053       13.4510515899
  H         0.2610303907       -0.4698591850       13.2834269934
  H         1.7388189149       -1.0173653550       13.5691153209
  O        -0.8181463488       -5.6067096052       18.2964936741
  H        -0.9344281182       -4.8837766695       18.9698845122
  H        -1.5122062191       -6.2159019677       18.5590933803
  O         5.4842648039        2.8131563694        5.4927757212
  H         6.2003956187        2.2156375310        5.2051634797
  H         5.8078354551        3.7108236148        5.2056026027
  O        -1.4700076291        3.0855472306       17.3615584921
  H        -1.6667639475        2.1449232534       17.3769560179
  H        -0.5692121494        3.0853190401       17.7867876455
  O         7.1335067591        0.3164678225       19.7289184431
  H         7.6160400091        1.1543458423       19.9030853287
  H         7.3802004975       -0.4351093073       20.3306705336
  O        -2.1835172217       -7.2570633086       10.1200891157
  H        -1.7806573267       -6.3878241221       10.4374962914
  H        -1.5903101313       -7.9228667622       10.3828642729
  O        -3.3480653894        2.2102877502       14.5331121943
  H        -3.5280068450        3.0533285993       14.9500631483
  H        -3.6036875182        2.4416560900       13.6755574383
  O         7.1639238362       -5.9564066869        6.6949916242
  H         6.7442588746       -6.7863006234        7.1300923463
  H         7.1068786628       -6.3030002175        5.7679865805
  O         4.3713843484      -12.4882900018       20.1052845716
  H         3.9414061599      -12.0576987911       20.9031345475
  H         5.3125695708      -12.0893732428       20.0238847009
  O         3.0279234020       -2.7984561485       11.7741457967
  H         2.5552767299       -2.0009000859       11.6214367388
  H         3.8794167781       -2.5488538905       11.2729050685
  O        -3.3762662358       -6.7621967807       13.3257084333
  H        -3.1796693780       -6.2375286373       14.0915272300
  H        -3.5110560819       -6.1064465409       12.6251634839
  O        -3.8509512325       -9.8331317587       20.1752673576
  H        -4.1457598258       -9.4845855125       21.1133684482
  H        -3.5383713891       -8.9603994206       19.7796546611
  O        -4.1624788418       -2.2772450883       16.0961512355
  H        -4.9606856008       -1.7791722021       16.2086476178
  H        -3.5492087247       -1.7878323824       16.7271154551
  O        -5.2854413050       -2.0924591276       21.3886921663
  H        -5.7889981648       -2.7043134615       20.7954075647
  H        -4.3620838016       -2.4918853789       21.4372276553
  O         2.5150857450       -8.8758837863       10.0653557765
  H         3.0982428797       -8.4428924709       10.6437559632
  H         2.8732319184       -9.7776949158        9.8623241727
  O        -3.4794703056        0.3747845340       11.4938061267
  H        -4.2463193545        0.9811975141       11.7142992649
  H        -2.6978104479        0.7406180993       11.9984606725
  O         8.7501135889       -4.3300355454       11.5045391970
  H         7.8421960864       -4.7085945974       11.2704532574
  H         8.6257631505       -3.7707541123       12.2494725370
  O         7.8214468532        3.8555545918       10.3331243852
  H         7.1121662236        4.2512635065        9.7400728639
  H         8.5256600816        4.5548704810       10.4289860912
  O         4.0446174001       -5.5102219211       16.7017387638
  H         3.2141353020       -5.9168973804       17.0273674065
  H         3.8140467292       -4.9527946726       15.9428571234
  O         5.7772781917       -2.4215886465       11.3068011076
  H         6.3575446243       -2.5764904336       10.4508816158
  H         5.9633393967       -2.9992539674       12.0746267445
  O         1.3047376046       -2.4781725787       20.7968600862
  H         1.6756972997       -2.5653802806       19.8684708295
  H         1.5223575060       -3.3366855651       21.2855553436
  O         6.5508349990       -7.9609133188       13.7713457283
  H         7.5415216971       -7.6070880333       13.5461408947
  H         6.6535792655       -8.8890131627       13.5396118725
  O        -6.8746833630       -0.9635934024        3.3517508045
  H        -7.2734286502       -1.1344259010        4.2819717529
  H        -6.3143236550       -0.2368211459        3.7035232771
  O         3.5610042466        6.6035363252       20.6438774043
  H         4.1170941575        7.3947099344       20.4225249853
  H         2.9423379490        6.8913043504       21.4016822459
  O         3.1625879538        0.7880088423       22.5023606345
  H         2.4034435276        0.1681244482       22.5976539191
  H         3.8745325483        0.6555220757       23.2098591414
  O        -0.0368507647        4.9091368821       12.6213829997
  H         0.8822463819        5.2754810107       12.8310271925
  H        -0.2799332625        4.2808724457       13.3453933779
  O         6.9245692395        2.1808619473       12.1706012675
  H         6.1542646846        1.5130266651       12.0501330582
  H         6.9915439932        2.6471914269       11.2838630819
  O        12.1067772526        3.0486840427       10.8866232620
  H        12.2972025683        3.8047051934       11.5715270619
  H        12.9817827254        2.9375433153       10.4914551142
  O         5.1671400142        0.1718989702       11.9876337537
  H         5.5162627183       -0.7186204673       11.7765807485
  H         4.5408966297       -0.0189726528       12.7518763537
  O         7.4591981251        0.8205439071       17.1404343325
  H         7.3471470507        0.3990940671       18.0627490936
  H         8.4513340139        0.8480830978       17.0724931496
  O        -0.4182771243        3.0633166258       14.5742867003
  H         0.3443706954        3.0824671853       15.1770745969
  H        -1.1153870252        3.0962997930       15.2320581548
  O        -9.0880887147       -0.3796917180       14.2814327650
  H        -8.3708280824       -0.6825286262       14.8262401670
  H        -9.3836890567        0.4423778505       14.6931248932
  O         9.5959643305       -2.8267291045        9.3337076463
  H         9.4799078889       -3.2972300159       10.1741498542
  H        10.1185557970       -1.9964344214        9.4887624817
  O         0.3455689672       -3.0701150254       15.5667057797
  H         0.4081462592       -2.2465598991       14.9634957177
  H        -0.3153274149       -3.7393359987       15.2878927746
  O        -3.3305948550       -2.1153250761       13.1706136896
  H        -3.6657434265       -1.3816210478       12.5483915116
  H        -3.7777331752       -1.9010022605       14.0195323304
  O         1.3631834138        3.1049766371       19.9207314510
  H         1.8492422562        3.4621738384       20.7112049708
  H         0.5357887852        2.7644941085       20.3061594690
  O         2.4216145104        5.5208444772       13.8347294624
  H         2.4910571449        6.4192571922       14.1485111904
  H         2.4431124625        5.0401827997       14.6983641500
  O        -1.0717891873       -3.7460092838       20.2055961467
  H        -0.3541510694       -3.5892288516       20.8371762098
  H        -1.8622314230       -3.7772667910       20.8382212431
  O        -1.7268115397       -2.2946413184       17.8090610903
  H        -1.3393174612       -2.9536403929       17.2521207348
  H        -1.6575439081       -2.6994303082       18.7039560292
  O        -6.1665835169       -7.1779552120       16.4755647861
  H        -6.9019105584       -6.4933734112       16.6061910046
  H        -6.2995465088       -7.3665930371       15.4601114764
  O         3.4512651690        1.7716047425       16.1448804174
  H         3.1431671573        1.5326976542       17.0638816995
  H         4.3223896184        2.1851255914       16.3297399116
  O         2.0327280846       -3.3832764624       18.0708655335
  H         1.5591531642       -3.3922513785       17.2278803022
  H         2.1144418633       -4.3105789794       18.3620269272
  O         9.3277588635       -7.7614166666        3.5072637400
  H         8.5763393247       -7.4156150747        3.9814044905
  H         9.9128903463       -8.1985267062        4.1649868474
  O        -2.2989791170       -4.6379692584        2.9587405112
  H        -3.0833195742       -4.0985758402        3.2519859712
  H        -2.1169113049       -5.2869586994        3.6327742071
  O        -0.5758176378       -5.3653817707       11.0583375707
  H        -0.4566628011       -6.0474166204       11.7580537701
  H        -0.7143411009       -4.5087803786       11.5355805371
  N         6.3335596819       -3.7980476780       13.7816891843
  H         6.4873113528       -2.9227095771       14.2770897424
  H         5.6471656158       -4.4289282296       14.2664276064
  H         7.1733120590       -4.3122544935       13.8514285886
