     193
 CELL 12.4294 12.4294 12.4294 90.0 90.0 90.0 i =    26920, time =    13460.000, E =     -1096.4554108145
  O        -4.7288472439        0.2010087402       11.2738808539
  H        -3.9285369670        0.1910498524       10.6746602786
  H        -4.8766026932        1.1198166770       11.4405535825
  O        -1.8942665305       -8.1933649118        5.5167067126
  H        -1.1156818005       -8.7486185348        5.7955173001
  H        -2.3079741316       -7.7705125741        6.3373081720
  O        -0.4879433363       -7.0215104938        8.7580738840
  H        -1.3396382397       -7.0572866166        9.2618689157
  H         0.1198400294       -6.8271876591        9.4525139487
  O        -2.7623466704        0.2215375455        8.5918875743
  H        -1.8034865500        0.4307905820        8.4170533639
  H        -3.1852992677       -0.5594132988        8.1654618502
  O       -12.4386981370       -5.6146157432        5.6842719169
  H       -13.4447440317       -5.7067700556        5.8682981465
  H       -12.3374751781       -4.6866076901        5.4231760453
  O         3.5221599047       -5.4134631267       12.6392767915
  H         3.1851670620       -4.5183251204       12.2517297376
  H         2.8524069094       -5.6217317177       13.3653247991
  O        -4.7755521295       -1.3451557624        0.9182302854
  H        -4.8618114620       -0.7940880166        1.7070995166
  H        -4.8660180776       -0.6643249560        0.1877389401
  O         2.5913844257        1.9717042968       11.3502282298
  H         1.8601657111        1.8866907340       12.0082825662
  H         2.1946197812        2.4806981762       10.6257344232
  O        -5.1233304116       -7.1024409472       -1.9354220523
  H        -4.7897674784       -6.5012969678       -1.2296916370
  H        -5.9847501049       -6.6154164388       -2.3357817938
  O        -1.9323766885       -1.3360454695        0.9325318941
  H        -2.9297410258       -1.2825614968        0.8158412753
  H        -1.7813351444       -1.8879963215        0.1267840712
  O        -0.0897715194       -5.2005686622       -0.8407040421
  H         0.8756772713       -4.9102673955       -0.8206725960
  H        -0.3547681338       -5.2712196279        0.1326003817
  O       -10.8569992615        5.7529121703        1.9733297751
  H       -10.2736203378        5.0160999795        2.1783332535
  H       -11.2462644899        6.1005552900        2.8080522447
  O       -11.3495947146       -2.6261904219        9.9039906207
  H       -10.9461551397       -1.9662717254        9.2674717406
  H       -11.1089796884       -3.4661723730        9.4321103378
  O        -2.3073908844       -3.1977935296        3.3756422858
  H        -1.9030217669       -2.4834328105        2.8408248413
  H        -3.3104249809       -3.0312268707        3.3961888162
  O        -1.7007878881       -0.1745081013        4.7130444151
  H        -2.2583930337        0.6211741817        4.8255764173
  H        -1.0491675568        0.1014146804        4.0192878316
  O         6.0443640266       -0.6529976736        5.9415853382
  H         6.3431986185        0.2819047061        5.9454365771
  H         6.7542128654       -1.1122564457        6.5488682312
  O         2.5626607480       -2.8795164846       -0.0883071189
  H         3.4926081830       -2.4957686568       -0.1843149698
  H         1.9312216884       -2.6990101872       -0.8442399789
  O        -0.0713727568        0.7119405421        8.5726335641
  H         0.8148556339        0.2883903243        8.6668399266
  H        -0.3059072353        1.0978888536        9.4898445408
  O        -0.2837975172       -1.3484431400        6.6571210492
  H        -0.8076208023       -0.7830765679        6.0790954954
  H         0.0364814752       -0.7578612179        7.3395384086
  O        -4.5911922324       -5.3540455761        7.8460289254
  H        -4.1688039593       -4.7846778697        8.6107894875
  H        -4.6276430142       -6.3098713655        8.0909035917
  O         2.6744472431        4.4028113749       -2.8971521561
  H         3.0637963636        3.6467896203       -3.5310116101
  H         2.0906471335        4.8326774724       -3.6000001373
  O        -4.7272506429        1.9281797546        7.5238432099
  H        -5.5373435375        1.6525543925        8.0604006844
  H        -3.9849202388        1.3934586943        7.8901264940
  O         5.4771777518        1.4483105221        9.1908873536
  H         5.7606517694        1.9169674124       10.0025821888
  H         5.1536805824        0.5203925943        9.4214148067
  O        -4.1716712900       -5.0954806022       -0.0072223298
  H        -4.8419737534       -4.7374725545        0.6172803761
  H        -3.3208123115       -5.1634195875        0.4978328068
  O        -7.8159337736        1.6650116938        4.3077848717
  H        -8.1296832035        2.0124155079        3.4644349671
  H        -8.4496975461        2.0690667774        4.9687699736
  O         4.7522105892       -6.3767232080       -3.6619885695
  H         3.9385588405       -6.9451493089       -3.4462298893
  H         5.1977867760       -6.8195242744       -4.4601260349
  O         2.2477399281      -13.1116216888        8.4241523462
  H         3.1228214551      -13.1037579147        9.0048069888
  H         2.6080936933      -13.1383005683        7.5076992273
  O         1.2491479329       -3.0281175200        4.7664807560
  H         0.7240987298       -2.4948724111        5.3913702963
  H         1.0053065135       -2.6802599920        3.8738232388
  O        -6.1220209129       -6.9261115864        4.6377859812
  H        -6.0779693645       -6.0008224462        4.8309934086
  H        -5.6880463790       -7.1334336502        3.7737230903
  O        -5.9038719627       -9.4487486862       11.2089684052
  H        -6.5193242233       -8.8149027235       11.6406203903
  H        -5.4456047815       -8.7726531398       10.6211841946
  O        -5.9910512936       -4.4774322139        5.8565121696
  H        -5.3358920876       -4.7868562945        6.5869827464
  H        -6.7811721843       -4.1871183475        6.3258929655
  O        -7.6372897212       -1.1414570466        9.6713003132
  H        -7.4200846102       -1.8761210099        9.0127600667
  H        -7.1549745391       -1.3319874290       10.4850670776
  O        -2.9682231950       -9.1674348936        0.4850141962
  H        -3.7738451968       -9.3255456701       -0.0694978327
  H        -2.5205208488      -10.0181118503        0.5971324296
  O        -5.1351798387        0.0602683325        3.2475845927
  H        -6.0668643997        0.1909969713        3.3398901806
  H        -4.7028550009        0.8273855044        3.7250721605
  O         6.1364524767       -4.4165320501        1.5984825464
  H         5.2145254908       -4.5547284321        1.2663351597
  H         6.1601919744       -3.6529644293        2.2749301433
  O         4.5068450605        4.4731693530       -0.0692021698
  H         3.7842774219        4.4093211201       -0.6989286747
  H         4.5393035605        5.3989883304        0.0819027706
  O         1.7123885371       -5.0276920095        8.5323174766
  H         1.6133562418       -5.2311510166        7.5610758886
  H         2.5750759210       -5.4432529950        8.7520612820
  O         1.5925246022       -1.6713924888        2.2437619383
  H         1.7152909095       -2.3711501763        1.5326523230
  H         2.5320320053       -1.5735525177        2.5802647960
  O        -1.5351303850       -2.6961701288       10.8514388084
  H        -0.8034730267       -2.2871223855       10.2900424701
  H        -1.0765141445       -3.5330127879       11.1435779953
  O         3.6082420609       -7.7794215932        4.6615174489
  H         4.5444024813       -7.5347414524        4.4714264686
  H         3.3933269311       -8.2117468260        3.7896447778
  O        -7.7364917842       -3.4144209693       -4.5458355231
  H        -8.4943954164       -3.8807961110       -5.0327219541
  H        -7.3490673558       -4.2022915165       -4.0327651369
  O        -0.2278273328        4.3787057065       12.3833875761
  H        -0.0544892516        5.1027275075       11.7106653657
  H         0.3479974307        4.5097106527       13.1717921082
  O        -1.3243708821        1.0762988518       14.1658329609
  H        -1.5431195451        0.1713195489       13.8400315377
  H        -0.3239202988        1.0862609411       14.1052806110
  O        -5.0446795438        3.8155217863        2.4701458760
  H        -4.3287326739        3.6746768805        1.7719994729
  H        -4.7128639248        3.1678201932        3.1778024841
  O         3.0939691452        3.4988582545        2.1133464562
  H         2.5831939509        2.6192971541        2.0083832048
  H         3.7429926940        3.7450698768        1.4095893933
  O         5.2469529024        1.1598854974        1.2039009129
  H         4.8316010547        1.3037843989        0.3557390523
  H         5.8494563962        1.8969303553        1.3123804775
  O         1.5366183766        1.1287300350        1.9845750745
  H         1.9116607768        0.2164614125        1.7314602788
  H         1.4534636618        1.1403773076        2.9707566281
  O         3.0731297003       -0.7860602871        5.7067047078
  H         2.8740946066       -1.6820770784        5.3504449078
  H         4.0680879174       -0.7480552205        5.7280980884
  O        -3.7606657657        2.1863944471        4.7248050006
  H        -3.1586636693        2.9327869708        4.8166449556
  H        -4.2553686204        2.0249709693        5.5093008746
  O       -10.9401904294        1.1690415774        4.6296703510
  H       -10.4087641189        0.3623688551        5.0144710738
  H       -11.6028090811        1.5257382477        5.2149034947
  O         5.4771289217       -2.4061518463       -0.4383451164
  H         5.4129782948       -3.3573641442       -0.2950120851
  H         6.1901479729       -2.1844405009        0.2105048329
  O        -2.6098729229       -3.0658131027        6.3613610735
  H        -1.7038597644       -2.7355866360        6.6677960571
  H        -2.4162255741       -3.0814986673        5.4328054290
  O        -5.4680477856       -2.7432743056        3.7848289175
  H        -5.1820921176       -1.8263860500        3.9907987435
  H        -5.6446896123       -3.2154226833        4.6227520210
  O        -0.8345146932        1.9547876234       10.8146598368
  H        -0.7644141262        2.8695983093       11.2418490689
  H        -1.3513389908        1.5857518821       11.5736884556
  O        -0.9773695020        4.7155163609        2.7699517910
  H        -1.2729129990        4.5431380009        3.6410962426
  H        -1.1584509499        4.0750558072        2.0925950764
  O        -3.7795906922       -3.7092582500        9.9348891801
  H        -3.0803731763       -3.1012665237       10.2809289234
  H        -3.8791152340       -4.3842708960       10.6710325430
  O        -4.5320570008       -1.7802120678        7.7913195885
  H        -3.8692465349       -2.2514601545        7.2780877974
  H        -4.7560394669       -2.4494582653        8.4235310008
  O       -10.8852054571       -7.8722336023        6.8309813348
  H       -11.3963621904       -7.0492758065        6.7168219946
  H       -10.1661188022       -7.8299110957        6.1600383057
  O         0.0669206790        2.5483550866        6.5133444603
  H        -0.0845387017        1.9403892190        7.3260652900
  H         0.8022130199        3.1626987727        6.7154016387
  O         3.0088557741       -5.1704295971        5.9238894807
  H         2.6201020576       -4.4616362448        5.3404885061
  H         3.2456410139       -5.8978169582        5.2886921044
  O         3.7503518235       -9.7341022797       -4.9329055950
  H         4.4062442295       -8.9636050519       -5.1214166145
  H         4.3771652190      -10.3878523080       -4.4979571382
  O        -5.7800985016       -8.0817216830       -5.1403007771
  H        -5.8731852848       -7.7861040460       -6.0624186556
  H        -5.3036850090       -8.9655244672       -5.1907481002
  O        -1.5686566040       -5.3555455551        1.5764363761
  H        -1.5855837448       -6.2904938168        1.9800023085
  H        -1.7406687392       -4.6484271574        2.2509467754
  N         4.2262244701       -1.2104025028        2.5664244381
  H         4.1466944410       -0.2730395587        2.9451314359
  H         4.8889391519       -1.7619820714        3.1499204996
  H         4.7465954227       -1.0991362355        1.7062643417
