     193
 CELL 12.4294 12.4294 12.4294 90.0 90.0 90.0 i =    68520, time =    34260.000, E =     -1096.5277387457
  O         3.1119731416       -2.4021313395       34.4211453744
  H         3.8047792967       -2.5680172604       33.6949219519
  H         2.6390792467       -1.5513402619       34.1573394385
  O         4.7003768185       -9.4496004254       29.8359499030
  H         5.3799249562      -10.0142149796       30.2340764979
  H         4.5687555143       -8.6167173008       30.3261957633
  O         8.4232879776       -4.9802374931       32.5499502087
  H         9.3539055035       -5.0373822815       32.1327683157
  H         7.8382446615       -5.5392970119       32.0473045702
  O         5.0213863414       -1.0488553016       32.3898752731
  H         5.1695156479       -0.6043293738       33.3012069268
  H         5.9427206799       -1.2655803802       32.1226960145
  O        -5.1980231158       -6.8073844066       27.5839773471
  H        -5.5949571217       -5.9738047202       27.9539476778
  H        -4.3365671232       -6.5679192374       27.1887702525
  O        10.7413396836       -4.8133622426       39.0217152509
  H        10.3246109297       -5.0376934034       38.1540731959
  H        11.0013949561       -5.7126665484       39.3935859493
  O         5.5137168445       -2.5954505134       23.8581128052
  H         4.6244782930       -2.5979193262       23.4357692078
  H         6.1281498008       -2.2061258072       23.2035589756
  O        11.6173226480        3.5289365214       33.7931824213
  H        10.7157648445        3.2459322924       33.7899821696
  H        12.1078871077        3.3553713736       32.9493197185
  O        -0.2514329983       -6.0777610812       21.4331634524
  H         0.4776501323       -5.5827146134       21.8963828237
  H         0.0408642011       -6.9840787192       21.4468639367
  O         5.5176486019       -4.3837968088       26.1594111475
  H         5.6993790991       -3.8078540814       25.3263726801
  H         5.8097376842       -5.2693839354       25.8038386563
  O         6.5417990080       -6.6744181350       24.7203478544
  H         7.2778400566       -7.1705283104       25.1737965919
  H         5.8560501702       -7.2935633301       24.3841252039
  O        -1.3373822213        5.0830300206       27.4843806167
  H        -0.4522724912        4.6963997678       27.2194090346
  H        -1.9732048542        4.6785791293       26.8352305102
  O        -4.7465681521       -1.4600159938       34.9015423761
  H        -4.2875783606       -0.6752025520       34.5037997875
  H        -3.9727519771       -1.8756154310       35.3518607901
  O         2.8360825474       -4.5470865038       26.2142696332
  H         3.8024004024       -4.4640834116       26.0077052170
  H         2.8407888606       -4.2441038016       27.1986480465
  O         3.9194954373       -0.7572714891       27.8351464600
  H         3.3449865987        0.0316070559       27.6305009405
  H         4.6351446829       -0.6653920149       27.1449556025
  O        14.8224953055       -1.8194517337       30.9775240110
  H        15.4913074062       -1.1017074348       31.2009104801
  H        14.9223412558       -2.5120525817       31.6475892945
  O        10.3604920854       -6.5194283064       23.7522898386
  H        11.0621915849       -6.6878960891       23.1428047446
  H         9.7657321956       -5.8040844449       23.3541299208
  O         6.6970620312        2.4986794380       33.3133177613
  H         6.6879287954        2.2566457584       32.3446882334
  H         6.0551144967        2.0575463489       33.9008433169
  O         3.2100324875       -3.2448266553       28.5857318058
  H         3.5524744926       -2.3552693285       28.1783850556
  H         2.9799691262       -2.8135302621       29.4704347745
  O         6.1829012100       -7.1932004927       33.1271683234
  H         6.0413514747       -6.7558784072       34.0320619916
  H         6.6097691091       -8.1018528682       33.2623728627
  O        12.5800503889        2.6540648736       19.0422323001
  H        11.9401516727        1.8800865620       18.9953338583
  H        12.0861833840        3.3012773019       18.5204827167
  O         2.7819795068        1.4193313119       31.5647505828
  H         3.5972192603        1.9331439394       31.7900538182
  H         2.1344671649        2.1011865271       31.2783420644
  O        10.0080291763        0.0200197890       33.4327139123
  H         9.9156862212        0.9376704699       33.9186582460
  H        10.7161076542       -0.4935165331       33.8941475428
  O         3.0294751198       -9.7415701576       22.8221765642
  H         2.7559736135       -8.8436086490       22.7439658591
  H         2.2086982607      -10.2948985315       22.6080285838
  O         0.6503078960       -0.3370904297       29.1566662721
  H         1.2040745497        0.4610738384       28.9337911083
  H         1.3459914243       -0.9389202595       29.4814685475
  O        10.9301932610       -5.2722431506       19.4367069562
  H        11.5333877582       -5.6127937400       20.1682546548
  H        11.4313157479       -4.5939546082       18.9121761019
  O         7.7189555591      -10.2735452964       36.6455452883
  H         6.7133153268      -10.1271033535       36.6295001897
  H         7.9225786329      -10.9794893354       37.4168987334
  O         9.6865090025       -3.0038125796       24.0411630685
  H         9.1792147671       -3.8173367327       23.7359588028
  H         9.3100756515       -2.6842629832       24.9388996307
  O         3.1874526898       -7.4625398050       26.2078309683
  H         4.0297150343       -7.7137758467       26.6830732892
  H         3.0339968448       -6.4058078426       26.2613146456
  O         1.8486412729      -12.5206319505       33.5648973882
  H         1.2484630813      -12.0575858714       34.2401418715
  H         2.2730818765      -11.9470971600       32.9029831940
  O        -0.1609338312       -3.6284525507       30.4042915224
  H        -0.0404595530       -2.9679664562       31.1636304280
  H         0.6725083924       -3.8939217322       30.0668178031
  O        -0.6105875496       -1.5235410065       35.1962476724
  H         0.1731731859       -1.5447461162       35.7818398627
  H        -1.4104092139       -1.8526274003       35.7078629658
  O         8.8468423720       -7.8533325986       25.5035086935
  H         9.4589600016       -7.5485091213       24.7642606358
  H         8.4058779743       -8.7513833290       25.1897171808
  O         1.8877429576       -0.7536925759       24.3194748929
  H         1.4850020400       -0.8181907416       25.2536777570
  H         2.5536140983       -0.0425540246       24.3156805928
  O        12.8252203089       -3.5168955614       25.3911252770
  H        12.0778982370       -4.0720102592       25.7539475809
  H        13.7266051834       -3.9248666713       25.7920413222
  O        12.7347797233        1.5218211007       23.0363489520
  H        12.3278801752        2.3562456506       22.6215164299
  H        12.5841585106        1.4940896518       23.9960435353
  O         8.7261810344       -8.5894285471       29.5728884083
  H         9.5140839616       -8.0456290891       29.9223619596
  H         8.1910469986       -7.9922793987       29.0208360589
  O         9.4314980734       -1.7668144319       26.2480650691
  H        10.3433266879       -1.4574260843       26.3302737454
  H         9.3186869788       -2.3820313226       27.0791602587
  O         8.1054715133       -5.1356318481       35.2971145892
  H         8.0913568176       -5.0031727065       34.3082076305
  H         7.5064866899       -5.8195447889       35.7052832555
  O        13.3216653457       -8.7410193055       27.2275540074
  H        14.0561861437       -8.3211897646       26.7141208655
  H        13.0343768004       -9.5113267098       26.6624029686
  O        -3.9184526161       -0.3092289350       17.8889477952
  H        -4.2849195008       -0.9372911447       18.5794624226
  H        -3.0092024409       -0.1226955884       18.1042187117
  O         9.2016475462        2.2922744539       34.4646565088
  H         8.9793765118        2.1771231853       35.4349185118
  H         8.3343346236        2.4326623629       34.0481322673
  O         7.9210650175        0.4514705694       38.7302470142
  H         8.3289671132       -0.4193270181       38.7330295206
  H         8.3715924182        0.9139173438       39.4416935645
  O         5.1093225573        2.9575424253       24.7010178149
  H         4.2113235810        2.9735542861       24.3620046967
  H         5.0895195095        2.9952938374       25.6583108728
  O        11.8284294351        1.5210028096       25.9260638749
  H        12.0172379444        0.6233479983       26.3480534139
  H        11.1169434523        1.8395100515       26.5118584568
  O        17.6883038192       -0.2127956304       25.3997547894
  H        18.6691162557        0.0005722644       25.5320398075
  H        17.7103559441       -1.1194061923       24.9122251312
  O         9.7128956315        1.6030833629       27.8097968324
  H         9.4641719226        2.4562541118       28.2900033698
  H         9.6714029765        0.8428503395       28.4541015303
  O        12.2666478057       -1.8537322992       32.4618033398
  H        12.1413575042       -2.1543615460       33.3982107683
  H        12.9700309438       -1.1861011312       32.5901213392
  O         2.2791940250        1.6521562867       28.4761538244
  H         3.0895373895        1.9476564299       28.9285215977
  H         1.9059230494        2.5178063892       28.2433301431
  O        -1.3485100972        0.4828629933       30.8455236869
  H        -0.5323604240        0.0898650546       30.3680909876
  H        -1.4647370884       -0.1028876640       31.7247489198
  O        13.9028529899       -4.5090985610       23.1272564389
  H        13.2683230266       -4.0922157565       23.7212642075
  H        14.3574819423       -3.7300852105       22.6910497383
  O         6.0942279920       -4.7077162092       29.0694310876
  H         5.3537285278       -4.2075162447       28.7839663382
  H         6.0177227534       -4.8582896818       30.0356213828
  O         0.0840906057       -1.0802421217       26.6431067324
  H         0.4276354052       -1.0978608445       27.5352672285
  H         0.0668452891       -2.0101366939       26.2973543652
  O         4.9467661219        0.6602131845       34.5753690452
  H         5.2274436840        0.4499688425       35.4896746806
  H         4.2007977257        1.3044777274       34.7408912319
  O         5.2391413998        3.9310937184       27.3541631041
  H         6.0876375230        4.4329558361       27.2597505383
  H         5.1287409928        3.5447659866       28.2463587139
  O         4.9421424970       -5.3413875303       34.7739013462
  H         5.4159231583       -4.6974111504       35.3006480205
  H         4.2696740015       -5.7985558860       35.3668172408
  O         2.8059915522       -4.6491758363       32.3797451508
  H         3.7193926947       -4.4273532014       32.1041836505
  H         2.6052293106       -4.2138823953       33.2360124484
  O        -1.4397720918       -7.6857277415       30.4979384321
  H        -1.4695314845       -6.8115474554       31.0761383635
  H        -1.1806814309       -7.3237237065       29.5859247337
  O         7.0936903484        2.0034234627       30.7143876835
  H         7.8007768667        1.2923962973       30.7425978046
  H         7.6196477943        2.7971672213       30.3432970285
  O         7.7771344727       -2.2973422952       32.2650963267
  H         7.9713529947       -3.2632412773       32.1383626401
  H         7.7716015625       -2.1003653208       33.2575126883
  O        16.3672307764       -7.3228081036       19.0817249738
  H        15.5686443023       -6.7293612446       19.3327307934
  H        17.0254791805       -7.1871711782       19.8256313027
  O         5.5937877907       -4.4906567202       19.3165955599
  H         6.0279122873       -3.6560479404       19.7206574418
  H         5.7757760281       -5.1278626500       20.0059487147
  O         2.9559406553       -6.9243564742       23.3752902029
  H         3.1764842708       -7.1725521481       24.3195988062
  H         2.4596916218       -6.0524081818       23.4856694446
  N         9.1016561760       -3.1652716522       28.6328229771
  H         9.7042288884       -4.0006338092       28.5736263628
  H         9.3837937573       -2.4855551888       29.3943721185
  H         8.1630655887       -3.5117492631       28.7875337248
