     193
 CELL 12.4294 12.4294 12.4294 90.0 90.0 90.0 i =    96120, time =    48060.000, E =     -1096.5382788730
  O         7.3338627051       -0.2691926721       48.0903235844
  H         6.6674081743       -0.4022835915       47.3538716377
  H         6.9099308987        0.3382344096       48.7251977671
  O        10.1947582927       -8.3146165535       44.9995173822
  H        10.5953543764       -8.3908649234       45.9128114381
  H        10.1597799676       -7.3382619274       44.8582197368
  O        11.6179202750       -1.2095743711       48.3897666557
  H        11.4106284011       -2.1258394874       47.9466615991
  H        11.8928206599       -1.3657674121       49.3570156552
  O         8.9787071360        1.8694376033       47.4943530404
  H         8.3043665844        1.0584913715       47.7005704374
  H         8.3922458375        2.5592902293       47.0986543773
  O        -1.9531296397       -5.7263420467       44.7590477591
  H        -1.2476064810       -5.4890837545       43.9851270828
  H        -1.7127821373       -5.0083800001       45.4234030578
  O        17.1906029174       -1.7769947287       55.6704586688
  H        17.4481417079       -0.8742104508       55.3750821667
  H        17.4634810400       -2.3846529680       54.9487619866
  O         7.2586605008        0.0124769803       40.0334079908
  H         8.0947564477        0.3022350270       39.7077187513
  H         7.0802511079       -0.7824367540       39.4847010213
  O        14.5610932951        4.4314500632       49.4568318567
  H        14.5735166994        5.3615115084       49.8498733980
  H        14.4165972258        4.5267805238       48.4568160103
  O         6.6805595463       -7.0422673882       37.4112594965
  H         6.5366682922       -6.1036321935       37.0670025167
  H         5.7786619797       -7.2176079593       37.8701610819
  O        12.1411371445       -1.4625468119       38.9170781326
  H        12.7549105296       -0.9077679868       39.4839606333
  H        12.0486760526       -2.2863792133       39.4473177958
  O        12.2020190614       -3.8544123594       39.8985205802
  H        11.2604875066       -3.9349659859       39.7526380854
  H        12.3880695577       -4.1539971999       40.8279519040
  O         4.1760206107        5.8263932854       42.9426026463
  H         4.9867309347        6.2225810937       42.5895587496
  H         3.7145970839        5.4886585446       42.1658891830
  O         0.8690134084        0.2283755457       53.2406398214
  H         1.5921669984        0.8735478680       53.1888675736
  H         1.1691499474       -0.3843380321       53.9145584968
  O         7.9365539788       -1.7494590843       42.6915413583
  H         7.6931158791       -1.5909438024       41.7885522417
  H         8.0758407822       -0.8983530092       43.1238145059
  O         7.9797189375        3.2866800281       43.8409334450
  H         8.8466707989        3.5393722126       44.4550455726
  H         8.5258166934        3.3487133899       42.9942858091
  O        17.7935797228       -0.1191680363       46.0110697000
  H        17.0512848820        0.2978602406       46.5998118105
  H        17.4218995078       -0.9417339577       45.6527794531
  O        17.9505942898       -3.2776963408       40.8328965308
  H        16.9871009609       -3.4706430960       40.5369483394
  H        18.3441060629       -4.1019504795       41.2380870016
  O         9.9685813802        4.7948025954       48.7196084785
  H        10.6636816325        4.2125539932       48.2930009579
  H         9.2951310519        4.1581585319       49.0858034482
  O         7.6532140974        0.7174315566       44.6669544581
  H         7.8887969943        1.5708196322       44.2976997427
  H         6.7545536074        0.7489858246       44.9971980048
  O        12.1191358893       -7.2441325498       50.8710845623
  H        12.7875882616       -7.5880444607       50.2506446604
  H        11.2642875364       -7.2684683202       50.4145183689
  O        14.1683051021        4.8327941271       34.3591026602
  H        14.8730558523        4.2764515625       33.9976706285
  H        14.2368760187        5.6067764296       33.7216902525
  O         6.5497989039        6.7443462461       45.9661778676
  H         6.9269292062        7.4328162868       45.3869810029
  H         6.3428143590        6.0278088729       45.3630279235
  O        14.2511715122        0.2831723223       49.2508753851
  H        14.1178671840        1.0157106564       49.9387399883
  H        14.6585874278       -0.5017235562       49.7567555375
  O         6.3477341409       -8.6692050856       35.2160679180
  H         6.2688414357       -7.8881479408       34.5965425210
  H         6.4758588025       -8.3235453397       36.1309910436
  O         3.6046962332        2.9806691941       45.9365988997
  H         4.4056380479        3.5312507736       45.5256959255
  H         4.0000660007        2.6235685189       46.8139978970
  O        14.0301932208       -3.4397706155       33.6712846292
  H        14.4216993558       -3.5463111881       34.5558074838
  H        14.3974837697       -2.5769918362       33.2471232436
  O        11.4891978331       -9.8037521295       53.0238567043
  H        12.0241073413       -9.4078180034       52.2756145275
  H        11.8814610782      -10.6710079427       53.0180798805
  O        15.2686571935       -3.1862800248       40.4592761202
  H        14.7820771304       -3.9373182069       40.1072312221
  H        14.8112678565       -2.8306150356       41.2638527529
  O         7.9706533049       -4.3802173703       44.0713906341
  H         8.9144312371       -4.5410442704       44.0449515858
  H         7.9321742991       -3.4837624482       43.7300649185
  O         3.9933833845      -11.3449724406       47.9638833904
  H         3.1447247782      -11.7798737657       48.4132591935
  H         4.5525352372      -11.0858305746       48.7114145252
  O         2.8614627839       -1.3331012413       44.9522926649
  H         2.6354989186       -0.4090219886       44.8364315565
  H         3.5752812983       -1.6065673329       44.2936538302
  O         3.2657383807       -1.5161558230       50.6344777678
  H         4.2016737218       -1.3994716550       50.6672985129
  H         3.0270770388       -1.9266922663       51.5228109061
  O        12.5136809717       -7.1582862412       41.2391301054
  H        12.3540023572       -6.9965305535       40.2712916141
  H        12.0356697662       -7.9772143816       41.4107561729
  O         6.0874832711        1.5940160349       37.9880756935
  H         6.2699024209        1.1171512723       38.8538782889
  H         5.5510373523        2.3631306660       38.2703652439
  O        18.2509201674        0.5332931082       42.2228713581
  H        18.8214833181        0.3652437373       41.4156157106
  H        18.9275765506        0.7715592246       42.9237282890
  O        16.7742103519        3.7035720880       38.5974789950
  H        16.1904026609        3.6840655708       37.8100861210
  H        16.2666213976        3.9758099014       39.3971013506
  O        12.2253737413       -5.0660584419       42.6513714173
  H        12.9658656636       -4.8695446576       43.2288599409
  H        12.5245954272       -5.9744722985       42.2696154158
  O        13.8104014050       -2.0613602689       42.4646541351
  H        14.0598110819       -1.8512198730       43.3968553980
  H        12.7714074456       -2.2214121674       42.3916734831
  O        14.4511067419       -5.1842192914       50.6473213095
  H        14.7829199918       -4.4885184975       49.9440545051
  H        13.4636236632       -5.1474472391       50.6876957908
  O        19.0967765322       -5.4468234201       41.9089574370
  H        19.6832044592       -5.3027987618       42.6913693611
  H        19.6331930462       -5.9969249670       41.2791478071
  O        -1.9846083212       -0.2822508297       32.6632251345
  H        -2.8301515996       -0.1066557174       33.0479792548
  H        -1.3401613346        0.1086708665       33.2685330742
  O        13.3169742910        2.1451463765       50.8949704726
  H        13.6353931100        2.9620180936       50.5691089258
  H        12.4353304233        1.9690933271       50.4463269744
  O        10.0968114210        0.6632852404       54.9185902429
  H        10.2262346170        0.5190629544       55.8664554304
  H         9.3681390783        1.2883938529       54.7406755255
  O         8.9884781801        3.3116990503       41.2668340816
  H         8.4722228904        2.8398258401       40.5914928441
  H         9.9190938415        3.0473951329       40.8952374540
  O        15.4074691394        4.4708664038       40.8997168135
  H        15.3917983662        3.4433350806       41.1062782151
  H        14.4764546394        4.7788524324       40.8683350994
  O        22.2528324318       -0.6699027683       39.8052163155
  H        22.7186789085       -0.2700458796       40.5546393424
  H        23.0620601541       -0.8522519236       39.2211854332
  O        14.6844006224        1.3762382188       44.2265021093
  H        13.8439760898        1.8551702769       44.0758985949
  H        15.2243444500        2.0142631185       44.7423613561
  O        15.4341753408       -3.5516054519       48.6498285256
  H        16.3447354142       -4.0317992494       48.6465073326
  H        15.5417076282       -2.6783659147       49.0316426367
  O         5.5322997087        4.6369211969       44.7323271510
  H         6.3397331591        4.2116569063       44.2538280894
  H         4.9515428900        4.9469036236       43.9713708202
  O         0.2600410347        0.8947002064       46.8832839042
  H         1.1174623218        0.9009956939       46.4659392149
  H         0.4324937478        0.3606850774       47.6628910397
  O        18.5102892586       -2.0683965119       38.5692415523
  H        18.4278711416       -2.5629877852       39.4429230982
  H        19.0417795339       -2.5879113658       37.9784439003
  O        11.0910033514       -3.2024895845       46.2964636590
  H        10.8700772056       -2.3023603413       46.0679614552
  H        12.0388153298       -3.3303590883       45.9587399317
  O         3.3331353606        1.8367560221       41.5261513313
  H         2.9660647956        1.6203417584       42.4020906147
  H         4.2820459844        1.5338528490       41.5926343523
  O         8.6985038947        2.8192332101       50.8077598215
  H         9.3575455828        2.1720747428       50.4699334421
  H         7.7814881079        2.5197297398       50.6175373600
  O        12.1681049896        2.7425670600       43.7053337686
  H        11.5156534485        2.2143115315       43.1414041096
  H        11.5925747964        3.4464891236       44.0383100179
  O         9.6272781556       -4.0547505429       51.7499858082
  H         9.2300737736       -3.6666284069       50.8438131678
  H         9.2221712686       -4.9894668090       51.7962765806
  O         5.5326349572       -4.5785442636       48.4944304414
  H         6.1615783806       -3.7630740990       48.6098972232
  H         5.6949231572       -4.9522498291       47.6179521605
  O         2.1771205971       -5.5991987911       44.6966915155
  H         2.0974742633       -4.7529666811       45.2079318545
  H         3.0548886516       -5.7650818356       44.2052210646
  O        11.7810807514        3.6215699857       47.2176923372
  H        11.8180680817        2.6345479697       47.1360799781
  H        12.6383546334        3.9218070537       46.7910070414
  O        10.7825210971        1.4712699155       49.5239251760
  H        10.9125415748        0.5616897032       49.4087130448
  H        10.2624174572        1.7304305413       48.7521022929
  O        21.1526400171       -5.3807437038       35.4053152211
  H        20.5836275484       -5.7316538357       34.7173317739
  H        21.8944543564       -6.0301465797       35.5822007370
  O         8.1285372438       -3.1803304285       36.7705751341
  H         8.2358943648       -3.9295480488       36.1151843023
  H         8.2985321212       -2.3326695909       36.3125686298
  O         8.2240672769       -6.8779952062       39.8462319936
  H         8.5117072508       -7.7601973262       40.0630448088
  H         7.7070358602       -7.0175027304       39.0279148903
  N        10.9535673025       -2.2936363083       42.5677776287
  H        10.8564653572       -3.3111922329       42.6418231667
  H        10.6112421591       -1.7240203963       43.3453021510
  H        10.3789985855       -1.9986640422       41.7731491231
