     193
 CELL 12.4294 12.4294 12.4294 90.0 90.0 90.0 i =    33720, time =    16860.000, E =     -1096.5372698023
  O        -3.5681478295        0.9589960125       15.0473050345
  H        -3.2095591899        0.3664947920       14.3328761817
  H        -4.5370302773        1.0004329623       14.8005858859
  O         0.5827393129       -7.7872629437        9.8925848779
  H         0.9577902051       -8.6672776594        9.9865201936
  H         0.4064591229       -7.4672571723       10.8087796779
  O         0.2682317037       -6.6322789558       12.3529935972
  H         0.5347862669       -6.9703419458       13.2969630969
  H        -0.7142593679       -6.6343998109       12.4015946773
  O        -2.3526791795       -0.0358625677       12.7473311394
  H        -1.4192343014        0.3473680278       12.7100241546
  H        -2.5330604146       -0.8127193813       12.2370285951
  O       -10.7341037061       -3.6009600197        8.6914668331
  H       -11.7028063276       -3.5082134522        8.8696505455
  H       -10.7137227703       -3.1277275433        7.7938398166
  O         4.4524920420       -5.2599296798       17.5300090774
  H         3.8043607725       -5.3372703874       16.8119257817
  H         4.1388212796       -5.6594394483       18.3238113775
  O        -3.1940115633       -0.4420091592        4.7419254718
  H        -3.5219255325        0.0937294871        5.5253266141
  H        -3.3071948145        0.1355803957        4.0004650662
  O         3.4724462221        3.8626799959       14.1173391488
  H         2.6631821319        4.0869276098       14.6608261354
  H         3.3591510162        3.6281622843       13.1617944983
  O        -5.1602690586       -8.9465590148        0.9843413144
  H        -4.9827828294       -8.6023818288        1.8952956658
  H        -5.7232847504       -8.1969056410        0.6428965150
  O        -0.9521874969       -1.7374533053        4.9804837885
  H        -1.8091614599       -1.1965078961        4.8410270407
  H        -0.8077459138       -2.2457525844        4.1571916704
  O         0.8070836896       -5.2184824402        4.0319453185
  H         1.0954276585       -4.8486522108        4.8620120198
  H         0.0240553805       -5.7297099104        4.3507538796
  O       -10.5427491831        4.6053231874        5.9048152351
  H        -9.7053639643        4.2686197414        6.3405693730
  H       -10.9140177415        5.2046166683        6.5510238053
  O       -11.6641452624       -1.9511888822       12.5326548757
  H       -11.3037383565       -1.2367487171       13.1696918393
  H       -12.1337105648       -1.4138133753       11.8369608251
  O        -2.1694447756       -3.4711322562        6.6217347082
  H        -1.6253305252       -2.7493204251        6.1086591712
  H        -3.0959633306       -3.0335076456        6.8680914759
  O        -1.1563633105        1.4099789850        7.8451633055
  H        -1.2336631504        2.2197270244        8.3926913261
  H        -0.5804547931        1.5735084204        7.0669023428
  O         7.4513589089       -0.9703881775       10.2042036811
  H         7.6552317461       -0.3200619588        9.4351872878
  H         8.2447404925       -1.5199834062       10.3964563672
  O         3.6759761338       -4.7522076751        1.8961579091
  H         4.3815253692       -5.4035811917        1.7047355627
  H         2.8766117230       -4.7978937585        1.2673247135
  O        -0.1218836861        1.5557188327       13.1362923368
  H         0.4060761349        1.0192384129       13.7311892503
  H        -0.8263698047        2.0765862415       13.6941411196
  O         0.1110791619       -0.5757039350       10.0479273026
  H        -0.4192324767        0.1089903877        9.5720454570
  H         0.9777010402       -0.4429039639        9.5953832321
  O        -2.5240028871       -6.6332159504       12.9818541109
  H        -2.7502273262       -5.7700049784       13.3525381887
  H        -2.7509957171       -7.3064321260       13.7007186332
  O         3.8906702154        3.5390903997       -0.8739605698
  H         4.6176002497        3.0455410744       -1.1933082343
  H         3.8805261465        4.4440640392       -1.2806990520
  O        -3.7585695627        1.9358996050       11.5084553499
  H        -3.2581606636        1.1626283489       11.8598440854
  H        -3.9063052934        2.5072452912       12.3094311870
  O         4.1457218569       -0.5742500564       13.5795825757
  H         4.7462572646        0.1634938561       13.8898990681
  H         4.5404928967       -1.4507826126       13.8299987409
  O        -4.7300539271       -7.9151426921        3.6138719078
  H        -4.6665800140       -6.9473608672        3.7624868571
  H        -4.0155682345       -8.2967093058        4.2488750045
  O        -5.1373407115        3.0594005137        7.1951200858
  H        -5.9213583149        2.9909543590        6.6994205372
  H        -5.4231439067        3.1359865366        8.1310420132
  O         5.5760557857       -6.5605755772        1.0347281295
  H         4.8086846067       -7.1630787455        1.1616319990
  H         5.6863237885       -6.4844830012        0.0181414661
  O         1.6767900747      -12.5852924819       14.8857102424
  H         1.6333606741      -12.4593018387       15.8288526026
  H         2.5630637835      -12.4041676576       14.5808331808
  O         1.5919723896       -2.9413095812        6.0636732092
  H         0.7817916948       -2.3230856956        5.8601160801
  H         2.3342550722       -2.3372286916        5.6935643341
  O        -4.9327277446       -6.3477518510        7.8763082092
  H        -4.7766583713       -5.6184783857        8.4848027808
  H        -4.1086987477       -6.8842850515        7.8299361695
  O        -6.2756788308      -11.2323606067       14.5658024096
  H        -6.6310560114      -10.6876438420       15.3361379097
  H        -6.0651603949      -10.4334791693       13.9700584496
  O        -4.9417759687       -4.2265055481        9.8370442779
  H        -4.2246020210       -3.7521675320       10.2473922055
  H        -5.7842532720       -3.8791805377       10.3711259389
  O        -7.6150358020       -2.6306921094       15.1662896916
  H        -8.0462478174       -3.4467747119       14.7790850816
  H        -6.7558242348       -2.8761220052       15.4999597274
  O        -0.2880053626       -9.1684867079        4.6672225629
  H         0.4342026263       -8.6659532243        5.1783028980
  H         0.1163868304      -10.0779716348        4.6712747556
  O        -3.7826304510        0.4333421756        7.6819009915
  H        -4.4667575450        1.1605605994        7.4358562917
  H        -2.8792521914        0.9577369304        7.7145002621
  O         7.3456129670       -5.3176964568        4.9240202343
  H         6.3666527152       -5.3991178178        4.9962179245
  H         7.7398157694       -5.4609090154        5.8299358022
  O         5.1911975353        3.1339500682        3.9749641427
  H         4.3916730524        3.4029533031        3.4577385683
  H         5.9268544479        3.7627294594        3.8346291134
  O         2.0119380555       -4.5189763171       12.1037479070
  H         1.2288319776       -5.0486543552       12.1883010552
  H         1.7694931426       -3.5697363848       12.0895412525
  O         3.8200301137       -1.5657822509        5.3026488945
  H         3.9787614256       -1.6311732361        4.3446951636
  H         4.4386873917       -2.1268832158        5.8178737314
  O        -0.5577907759       -3.1910051252       14.8849037679
  H        -0.1393250293       -2.6769141889       14.1671775363
  H         0.2202855829       -3.7312146987       15.1635661310
  O         4.6108580753       -6.4802577507        7.7119599602
  H         5.6134860660       -6.5034730601        7.7548305665
  H         4.4468851506       -7.4752676551        7.5552598637
  O        -6.7520795451       -3.4398170781       -0.7656607666
  H        -7.4794467892       -3.0119979795       -1.2595904667
  H        -7.2459803921       -4.0363721750       -0.1638508099
  O         0.9799451667        4.8054062772       14.9550525044
  H         1.2178130668        5.6395964175       15.3789302324
  H         0.4559205332        4.3263987324       15.6450414848
  O         0.4799533084        0.6276157008       17.7223038105
  H         0.1198468134       -0.2740213739       17.7678849559
  H         1.4061119674        0.6477653597       18.1852405378
  O        -2.7651554057        4.9116425283        7.9369195644
  H        -2.0797941396        5.4278164265        7.4706795343
  H        -2.3462374413        4.3705358450        8.7155444200
  O         4.2591634340        3.2017409560        6.5564849539
  H         3.8949258484        2.3108403562        6.6488876882
  H         4.4360635430        3.3028706353        5.6038464500
  O         9.2378988751        3.2723658391        5.2074359375
  H         8.7965053288        3.3647355327        6.1019109340
  H        10.1688055540        3.4897052211        5.3431068434
  O         3.0851371897        0.6937394389        6.5922088849
  H         3.6212177707       -0.0517535168        6.2473175627
  H         2.9797899049        0.5183162686        7.5571791110
  O         4.7901444441       -0.0856263100       10.9381348634
  H         4.4570566734       -0.3941095493       11.8735331527
  H         5.7098545534       -0.3515906357       10.7798355437
  O        -1.8048707672        3.1924441384        9.7602163762
  H        -1.0193613343        3.5791766162       10.1711281044
  H        -2.3827973379        2.7391955360       10.3935585518
  O        -9.8774414782        0.3973816157        9.2655295068
  H        -9.0551396482        0.2661472044        9.8026687217
  H       -10.3993175867        1.0752771762        9.7764081902
  O         7.5402524566       -2.8847698926        3.7842870107
  H         7.5394636851       -3.6304779803        4.4767172719
  H         7.8378402944       -2.1384329485        4.3724873161
  O        -1.1139956477       -3.2007241266        9.0989380633
  H        -0.9228985459       -2.2571439377        9.2733062928
  H        -1.6045875510       -3.2591269523        8.3021484037
  O        -4.5243530873       -2.1597900265        7.4468384121
  H        -4.3017991331       -1.2141861202        7.6037724388
  H        -4.6245641654       -2.4516862906        8.4047530553
  O        -1.8077923082        3.0117861119       14.4683552742
  H        -1.2988843339        3.0692321020       15.3495825936
  H        -2.6170088098        2.4875871058       14.7906134580
  O         1.1182254186        6.0930789072        7.9233129694
  H         1.4960330056        6.9826801164        7.9674615771
  H         0.7298970598        5.8991531040        8.7972378560
  O        -3.0587912766       -4.0584748412       14.0701909998
  H        -2.2124672740       -3.7734676264       14.4762618839
  H        -3.6642060396       -4.0025726192       14.8213000303
  O        -2.7207629686       -2.5151612556       11.6535403176
  H        -2.1765455106       -2.9581574532       10.9976022631
  H        -2.9476019121       -3.1909690057       12.3653597500
  O        -8.6435048130       -6.1963226286       10.5073151089
  H        -9.3970465605       -5.5478960591       10.8072907387
  H        -8.4033120772       -6.0564154284        9.5428173370
  O         1.4070616193        2.1589530014       11.0372814246
  H         0.8537647679        1.9176380286       11.8221998310
  H         2.2519962921        2.3729810554       11.4014879624
  O         3.7126839540       -2.4061468526       10.3736598211
  H         3.8846561447       -1.5188947327       10.1659021139
  H         2.9504599449       -2.7552863236        9.8227404963
  O         6.7035015547       -9.3067881093       -2.6055324699
  H         6.8896067631       -8.3838065274       -2.3699819869
  H         7.2855484898       -9.9042878623       -2.0343826581
  O        -5.0481246267       -6.6222281939       -1.1853662507
  H        -5.0216191609       -5.8069329303       -1.7700067984
  H        -4.0833965681       -6.7624337785       -1.0109596325
  O        -1.0016883140       -5.8247650172        5.9270650966
  H        -0.4025033892       -5.9114688812        6.7108775961
  H        -1.6467041571       -5.1359248446        6.0407018898
  N         5.2997587715       -3.2174624047        7.0434093347
  H         5.1228930425       -3.6267597248        8.0038885848
  H         5.2767126021       -4.0308545228        6.4121130032
  H         6.2312657148       -2.8689214224        6.9894824475
