     193
 CELL 12.4294 12.4294 12.4294 90.0 90.0 90.0 i =    87720, time =    43860.000, E =     -1096.5576765738
  O         6.8941692460       -0.9971007648       43.3918825009
  H         6.2776620740       -1.2497590387       42.6595011481
  H         6.5373773246       -0.2889594033       43.9659892840
  O         7.6537192714       -7.8511387575       40.9774303019
  H         8.4327655995       -7.8453244682       40.4227019447
  H         7.8140456021       -7.0651324530       41.5909177357
  O        11.1692887168       -2.8345920290       42.8905874128
  H        12.0399439875       -3.2256803997       42.6340826066
  H        11.0586544167       -3.2789482672       43.7555520504
  O         9.0461492406        0.0825809555       42.5988517735
  H         8.2305030216       -0.4478397620       42.8167898078
  H         8.6829182796        1.0069382429       42.4809226301
  O        -2.6812968787       -5.1858144908       38.3120788634
  H        -2.5140608987       -4.3996991003       38.9600306393
  H        -2.1558875276       -4.8620998118       37.5582487648
  O        15.3755025914       -3.4598742759       50.5769154227
  H        16.0751179024       -3.0126840233       50.0488818236
  H        15.2430046805       -4.4067681064       50.2517850266
  O         6.5279018641       -0.7956899812       35.0211453947
  H         7.3622064702       -0.9478226687       35.5404718613
  H         6.3207606312       -1.6282218412       34.5008443844
  O        14.4812453324        4.0058396706       44.0873904625
  H        14.0761998360        4.8081619531       44.4915991635
  H        14.0419352999        3.9416368001       43.1857556326
  O         6.2090485222       -7.8981099377       32.2041090183
  H         5.7384895283       -7.1471104904       31.7936557971
  H         5.4740943985       -8.4981967529       32.5329093862
  O        11.5262495174       -3.4692921915       33.2352557679
  H        11.1855660338       -2.5828109217       33.6142803040
  H        10.7399135407       -3.9803772898       33.5197470606
  O        10.9878043455       -4.3781636392       36.0314319598
  H        11.6432203930       -5.0321640470       35.7264190406
  H        10.3536361435       -4.3324447204       35.2947235134
  O         2.4112331155        6.4780625692       37.4665025812
  H         3.2785726558        6.1010237327       37.2488435740
  H         1.8972865024        6.3230757491       36.6160805677
  O        -1.1804668440       -0.9014729130       46.6598841706
  H        -0.8729074348       -0.6254686697       45.7873889542
  H        -0.5529880610       -0.5833144677       47.3213139611
  O         8.3937228083       -1.7003154285       38.7007493807
  H         8.7007771999       -1.6542995673       37.7904925786
  H         7.5565253215       -1.1080475264       38.7439937178
  O         8.6668304215        3.0163662583       38.2113933950
  H         9.4648835711        3.3620960973       38.6673283554
  H         8.8887048535        3.3326514828       37.3069359314
  O        17.4494479264       -1.1459402532       41.3240630346
  H        17.1368961519       -0.2335868118       41.5563924962
  H        16.6138388103       -1.6772104311       41.1151190347
  O        16.3667801460       -4.3008098647       35.4234854963
  H        15.5355460306       -3.8293464335       35.6798593145
  H        16.6765001198       -5.0039407632       35.9962423684
  O        10.8212117053        3.0823336127       43.7067071581
  H        10.6734370488        2.8761898598       42.7478284302
  H        10.0308935335        2.6870357498       44.1488901990
  O         6.0701689214       -0.4263846525       39.0099437159
  H         6.1110676480        0.5535153387       39.1580938397
  H         5.8368510264       -0.7122939011       40.0094738080
  O        10.4135431153       -6.1414703902       43.8577797878
  H         9.9112753946       -6.1354467216       44.7296554582
  H        10.3740587891       -7.0984147940       43.5388969516
  O        13.2257575534        4.4551338264       28.9441111359
  H        13.5194338859        3.7384018659       28.2153203442
  H        13.1186874970        5.2679026259       28.4026142037
  O         3.6216806768        5.8374881529       41.2116343321
  H         4.1987196070        5.4522044585       40.4413779990
  H         3.0382992993        5.1048736708       41.5182959628
  O        14.7320652413        0.4976747131       43.6243097820
  H        14.1288116733        0.8862681874       44.2498249653
  H        15.1515630936       -0.2609496849       44.0782037407
  O         7.0528968070      -10.0735740460       30.3513662113
  H         7.2999169029       -9.5892904858       29.5138789650
  H         6.8035038861       -9.3246544813       30.9650427337
  O         4.4353449746        1.9828206014       39.3672773114
  H         4.6303441061        2.9394546105       39.2296234999
  H         4.3218490521        1.9968060458       40.3677576160
  O        13.5592515337       -3.9809413940       29.1918056837
  H        14.2346944428       -4.3958489695       29.7405862157
  H        14.1206572674       -3.2992624361       28.7507207267
  O        11.6184275190       -8.8916031459       47.3499782353
  H        11.9661256342       -9.3523547296       46.5692122616
  H        11.8382189560       -9.5999647980       48.0265327291
  O        14.1857818794       -2.7568534601       34.4102037919
  H        13.3304041982       -3.2573521878       34.0746984670
  H        13.8762874485       -1.9983784831       34.9333876858
  O         7.2636465278       -4.4585607609       37.3507080609
  H         8.2210667481       -4.6862768408       37.6109412351
  H         7.0621846079       -3.6029165798       37.7422479961
  O         4.3430643410      -10.9830173407       42.1219037966
  H         3.5090881832      -11.2674652848       42.7214466150
  H         5.1457307361      -10.6759309753       42.6720933163
  O         2.5745084705       -2.0373050436       40.5092090485
  H         2.0638059935       -1.1747000717       40.6028107337
  H         2.6548034001       -2.4029920167       39.5659551905
  O         3.3116798910       -2.0145962157       44.6913157020
  H         4.2007160170       -2.0935617871       45.0668209801
  H         2.6922360460       -2.2232311706       45.4447812946
  O        12.9315768014       -6.3300017030       35.1980081713
  H        13.1597482032       -6.0744961498       34.2926436284
  H        12.3380710793       -7.1386192494       35.1174757396
  O         6.3978182804        0.9455049256       32.7806881527
  H         6.4385150961        0.4390299418       33.6251682385
  H         5.6883305985        1.5707037664       32.8975752914
  O        16.8109889188       -1.2455634213       36.8508476833
  H        17.4680520581       -1.2180420030       36.0843965413
  H        17.3364367282       -0.9502723659       37.6605951329
  O        16.6136125135        2.7125066351       32.8637217845
  H        16.0925405771        3.0018043888       32.1054870257
  H        16.2125211853        3.1061577175       33.6730417508
  O        10.8558165964       -7.6793605607       39.0178435935
  H        11.6518350347       -7.2958411630       39.4501356755
  H        10.4302115751       -6.8725105590       38.4957707040
  O        13.2531064144       -0.5270922212       36.2405118333
  H        13.8844383981        0.1145403323       36.6417133666
  H        12.8376059186       -1.0219195994       37.0074080217
  O        13.4690807717       -6.1921074110       44.9135161072
  H        14.2025157526       -5.6109839775       44.5562008738
  H        12.6419730289       -6.0812788399       44.4061576838
  O        17.6008069553       -6.2314721457       36.8823231278
  H        18.2544420152       -5.5333075130       37.2220700936
  H        18.0695203529       -6.5599740351       36.0281660875
  O        -1.9385913159       -0.6704234006       28.2992289042
  H        -2.5857516595       -0.3915995520       29.0036284016
  H        -0.9760279282       -0.5640346357       28.5864640638
  O        12.9843810522        1.9391889237       45.3130866477
  H        13.4367528071        2.6838100710       44.8615283047
  H        12.2494148602        1.7153965913       44.7261571529
  O        10.3133183892        0.7276291455       50.6150591393
  H        10.2910838307        0.1572856521       51.4329340728
  H         9.5754158263        1.3480012104       50.6376646622
  O         9.0308543862        3.5556556094       35.2326203538
  H         8.7278599068        2.7769233663       34.7245298567
  H         9.9816373212        3.6873119389       34.9918235203
  O        15.1863587306        3.4531891205       35.1312818969
  H        15.1315049691        2.5958326343       35.6028152483
  H        14.3328645421        4.0064699101       35.2558692824
  O        21.4586609497       -1.0964092213       36.0982827298
  H        21.8533538731       -0.4181454167       36.6299409484
  H        22.1865737459       -1.3903655197       35.5183713003
  O        14.0067228866        2.3717579867       39.6946814156
  H        13.4534335341        2.3169755268       38.8700482256
  H        14.9581262839        2.2639639836       39.3835438804
  O        15.4047733363       -4.6805005592       43.7753903877
  H        16.2377270744       -5.1602216074       43.5933597672
  H        15.5913737140       -3.7216325787       44.0800537876
  O         5.1652484283        4.6700972896       39.2537790511
  H         6.0687338964        4.7667656947       39.6225629839
  H         5.0646461301        5.1504781347       38.4082822964
  O         1.0969411142        0.0449823301       41.1792612209
  H         1.1609833993        0.8874688960       40.6575940855
  H         1.4844566868        0.1522387472       42.0757529554
  O        18.0471573795       -2.9035767301       33.9325662736
  H        17.4808356804       -3.4198619937       34.5653955811
  H        18.5268044102       -3.4058071691       33.3427107670
  O         9.4239541251       -3.4683665121       40.4438064707
  H         8.9560907682       -2.7470236974       39.8583934221
  H        10.0359700398       -2.9761829080       41.0484366522
  O         3.2703043471        1.3903622593       36.8782688694
  H         3.8291897890        1.5539276006       37.6936599882
  H         3.6115586635        0.4403577604       36.6440517603
  O         9.0818266604        1.4543318352       45.5653657523
  H         9.1441881233        0.5740336336       45.9827082845
  H         8.3000311470        1.2803232969       44.9752720691
  O        12.0797909435        2.6764490590       37.5588430821
  H        11.4065191987        1.9930646467       37.8940105806
  H        11.7290580831        3.4950966662       37.9979908229
  O         9.0437123763       -4.9762357932       46.2121259791
  H         8.5602110076       -4.3526629981       45.6481169430
  H         8.3524808090       -5.5052049154       46.7038869645
  O         5.6568450535       -5.9249791566       42.6689163305
  H         6.5049914827       -5.5771224470       42.2789428666
  H         4.8966958273       -5.8322228063       42.0218376103
  O         0.5943104302       -5.8757213385       39.7889689330
  H         0.7964311576       -5.0625141257       40.4142594209
  H         1.3833111134       -6.0209739751       39.2169382254
  O        10.4928038006        2.5012581799       40.9737239007
  H        10.6457504385        1.5160439119       40.7351402570
  H        11.4578237269        2.8202415487       40.8819714605
  O        11.5160431924       -0.3338441437       44.0213981153
  H        11.7220269874       -1.2224642352       43.7043639407
  H        10.6539036124       -0.1579123520       43.6105158453
  O        20.5999512043       -5.2536863298       29.7862651948
  H        20.9649810859       -4.5481937770       29.0541602791
  H        21.3962295202       -5.6111928708       30.1104856378
  O         7.5357190051       -3.6157963003       31.9796080529
  H         7.8300257657       -4.1115599009       31.1619492771
  H         7.5925991311       -2.6913970286       31.7194815975
  O         7.1352536781       -6.8552092960       34.6513985233
  H         7.8147045556       -7.5434909407       34.8979899778
  H         6.7508692413       -7.1048165329       33.8114321748
  N        12.1918289135       -2.3837287465       37.8785523670
  H        13.1126785857       -2.4957810093       38.4727615365
  H        11.3296106055       -2.3883631318       38.4591412687
  H        12.1231271675       -3.1471485162       37.1555320650
