     193
 CELL 12.4294 12.4294 12.4294 90.0 90.0 90.0 i =    27320, time =    13660.000, E =     -1096.4861113210
  O        -3.2489632714        1.0025822520       11.1778622478
  H        -3.2046385763        0.8442137519       10.1536287493
  H        -3.8247398198        1.6963996117       11.4280778143
  O        -1.9626228830       -8.6772623769        5.9448677503
  H        -0.9983985562       -9.0482843036        6.0620035654
  H        -2.1473209967       -8.1839901313        6.8568532242
  O        -1.6010891733       -7.1264703050        8.6678911452
  H        -2.2097865279       -7.3848748447        9.3866977937
  H        -2.1283198754       -6.3728499447        8.3090756229
  O        -2.9001902877        0.4049650262        8.2617295631
  H        -1.8999892996        0.4767405704        8.2822511484
  H        -3.1166043882       -0.5676079058        8.1902330594
  O       -12.8684259852       -5.5556751626        6.1212148212
  H       -13.2813388556       -4.7690773111        6.5508285073
  H       -12.5571862671       -5.1716455489        5.3250479775
  O         3.4600111412       -5.6342380844       13.6591099531
  H         3.2117980929       -4.9606819226       12.9718281981
  H         2.6193406082       -5.9205749414       14.1839458569
  O        -5.1177472850       -0.4896343006        0.5378100217
  H        -5.4092617756        0.2299802344        1.1465156448
  H        -4.6884187444        0.0215351321       -0.1995976582
  O         2.5215880738        2.4656391012       11.3556073387
  H         1.8957068056        2.2647285673       12.0983065852
  H         2.1094328347        2.9900687295       10.6252840685
  O        -4.6627417882       -7.1169076833       -2.0020279531
  H        -4.3061660715       -6.5288065152       -1.3126015747
  H        -5.5731210860       -6.7545041577       -2.2004374487
  O        -2.5689502133       -1.6548597205        1.5365073673
  H        -3.2978237018       -1.0868296066        1.2075307260
  H        -2.1805557832       -1.9532943157        0.6684212894
  O        -0.0550403900       -5.0144072349       -0.0217277492
  H         0.8816930949       -4.7345873909        0.2139086233
  H        -0.5011588884       -5.2789956232        0.7868865380
  O       -10.7659564156        5.0253781482        2.5163709310
  H       -10.1225245195        4.3939600577        2.9112643950
  H       -11.5252731559        4.9653597192        3.1758419982
  O       -11.4031106715       -2.4809786131        9.9869393281
  H       -11.0685662567       -1.9196551452        9.2453088592
  H       -11.6417659080       -3.3344584770        9.5755614567
  O        -2.6132208198       -3.5095535186        3.5355397130
  H        -2.6791407279       -2.6522375192        3.0419911949
  H        -3.5711497240       -3.7561075946        3.5687122435
  O        -1.5686207987        0.4315350327        4.2420336009
  H        -2.4140844249        0.9879733560        4.2830583384
  H        -1.3240799197        0.4655073645        3.3025646358
  O         6.1151834783       -1.2514206284        6.3100127683
  H         6.5067115372       -0.9752614353        5.4457348312
  H         6.7912981447       -1.8991971152        6.7193930749
  O         2.5056756895       -3.3855325296       -0.3511212700
  H         3.2161358192       -2.7666210658       -0.1419018329
  H         2.3286045498       -3.2230448626       -1.3306278149
  O        -0.1384926305        0.9986584065        8.8118727386
  H         0.7405280510        0.6290049755        8.9005478802
  H        -0.2873548540        1.5041636323        9.5991075903
  O        -0.0239752078       -1.1877797837        5.9015159293
  H        -0.5634640430       -0.5362674245        5.3447931403
  H         0.7770804882       -0.7856792470        6.2261440234
  O        -3.7679418504       -5.5609893415        7.9991188721
  H        -3.9346437009       -4.8061598549        8.6358430144
  H        -4.4218595378       -6.1858356223        8.3361399463
  O         3.0166985375        4.4005243005       -3.0043389512
  H         3.3675978778        3.6842181694       -3.6319923422
  H         2.2613647332        4.7618167150       -3.5750981299
  O        -4.6078442093        2.3273128312        7.6211908450
  H        -5.3544210650        1.8978712234        8.1135979368
  H        -3.9177973187        1.6175530111        7.8897698030
  O         5.6646270947        1.3724949704        9.0581834113
  H         6.0185826438        1.7958682596        9.8810178320
  H         5.6864395938        0.4101392649        9.2757728396
  O        -4.0062229583       -5.4249139096        0.0799342860
  H        -4.8123283161       -5.1291892481        0.6570431139
  H        -3.2572644682       -5.6725320577        0.7172086287
  O        -7.2544750349        1.5015666241        4.7814706326
  H        -7.7583358717        2.2532149177        4.3703814807
  H        -7.2362908720        1.8149130492        5.7634810696
  O         5.2853860554       -6.2809685372       -2.8152315264
  H         4.5195266007       -6.8603665376       -2.7177046157
  H         5.6918574927       -6.7569331067       -3.5638557222
  O         2.4275469597      -12.3796119232        8.6332212451
  H         3.2275851680      -12.4111477460        9.1920725862
  H         2.7813042196      -12.7001329109        7.7472287668
  O         1.2105584786       -3.3267574803        4.4830437279
  H         0.8592248225       -2.4939232104        4.9373435351
  H         1.5780596770       -3.0013367695        3.6472094599
  O        -6.7627046303       -6.2759260719        5.1184837709
  H        -6.3042043097       -5.4254359766        5.3403118950
  H        -6.3017066646       -6.7416156306        4.3511165994
  O        -5.4867920372       -9.6823789281       11.2254813557
  H        -6.0299634541       -9.5994764350       12.0588738634
  H        -5.0890054347       -8.7962186454       10.9351428849
  O        -5.5430127333       -4.0517864015        5.9671692951
  H        -4.8691195501       -4.3368680271        6.5996912229
  H        -6.3348982163       -3.8706871711        6.5438180873
  O        -6.8773616417       -1.2829511889        9.7437425056
  H        -6.8993316427       -2.1480547425        9.1904231160
  H        -7.0585597245       -1.6849527262       10.5874241623
  O        -3.2721590462       -9.2541651344        1.4106029287
  H        -3.1863193582       -8.8109019334        0.5564167511
  H        -2.6856023401      -10.1136077310        1.4325458789
  O        -4.9868966360       -0.2390733848        3.9069392848
  H        -5.2707595246        0.7010131363        4.0669162125
  H        -4.0337286231       -0.2085020162        4.1469587935
  O         6.1024439354       -4.6166796674        1.4474583044
  H         5.3591727517       -5.2180308077        1.6918656443
  H         6.4255217273       -4.2295154285        2.2926285537
  O         4.4498387815        4.0235848606        0.5201788082
  H         3.8163158032        3.6926691605       -0.1988496936
  H         4.1637887055        4.9401280150        0.6575215717
  O         1.0272464492       -5.2668416334        9.3625375597
  H         0.5012286804       -5.9368819107        8.8743534768
  H         1.9087519175       -5.4372450682        8.9877547723
  O         1.9873560755       -1.7549785431        2.1435841313
  H         2.2287751613       -2.2274165463        1.3326714151
  H         2.7772033664       -1.2309990846        2.4553389120
  O        -1.5228442735       -2.6255697437       11.5325992928
  H        -0.7774584313       -2.3134730331       10.9237855192
  H        -1.1432207028       -3.5211281570       11.7644307247
  O         3.3128105670       -7.6128223078        5.4780926443
  H         4.1149965333       -7.1712184080        5.1040397409
  H         3.3563177110       -8.3991981998        4.8990221906
  O        -7.2798110336       -4.0873177477       -4.5533983791
  H        -8.1732557754       -3.9997244771       -4.8676391000
  H        -7.3054141414       -4.8190297223       -3.8415000269
  O         0.4528370201        4.3805476703       12.4236287687
  H         0.4064423659        5.1927718696       11.8818213960
  H         1.0676524437        4.4284218415       13.1986087031
  O        -1.5874948440        1.1463732644       14.0525144334
  H        -1.8079098611        0.2981136824       13.5567443115
  H        -0.5882380409        1.2597234549       14.0321121184
  O        -5.2239230583        4.2581970080        3.5344067859
  H        -4.6111904110        4.3171991054        2.7342745622
  H        -4.8979736313        3.4423954902        3.9959143752
  O         3.4635697775        2.8972631453        2.8588408518
  H         2.8087703516        2.2386371899        2.5730908037
  H         3.7645083311        3.3030864023        1.9636735630
  O         6.2814880601        1.7702755953        1.5405140179
  H         5.6672091092        2.1568306253        2.1850312549
  H         7.0841011644        2.2956613372        1.6310141261
  O         1.0876814606        0.9070625172        2.1534438481
  H         1.1786215436       -0.0206366970        2.0279857955
  H         1.2053268605        0.9605537714        3.1733651163
  O         3.3331934799       -1.1677854549        6.2095168373
  H         2.9670543378       -0.8213258384        5.3699204928
  H         4.3301826456       -1.2922636607        6.1502508365
  O        -3.7271861630        2.2298978839        5.0336327338
  H        -2.9597527728        2.7416546248        5.2814709958
  H        -4.1231960223        2.0135359498        5.9100878243
  O       -10.6314299474        0.9913094555        4.9757305444
  H        -9.7668236999        1.1171304918        5.3411387994
  H       -11.1997251725        1.6099936008        5.4674790065
  O         5.0997135612       -2.4123673611       -0.1450112181
  H         5.4735018337       -3.2056907064        0.3312007096
  H         5.8492224004       -1.8021418135        0.0262902822
  O        -1.8196591987       -3.1633793910        6.2502248916
  H        -1.0877140489       -2.4344860308        6.2971105473
  H        -2.0082280671       -3.2945544454        5.2478039074
  O        -5.5217781705       -2.9241861324        3.4314834053
  H        -5.4635832693       -1.9277751836        3.4360221534
  H        -5.3969484379       -3.1943584798        4.3568650407
  O        -0.5975136528        1.9353967027       11.3669493517
  H        -0.4177425477        2.8107328022       11.8482971365
  H        -1.5911225114        1.9102477798       11.3192753849
  O        -0.8744706493        4.8198710691        3.5569373792
  H        -1.2893839756        4.5895489136        4.4259497736
  H        -1.0922544802        4.0692139108        2.9864784496
  O        -3.8429588587       -3.5124070496       10.1424146749
  H        -3.1423304063       -2.9865842444       10.6045910268
  H        -4.2152485147       -4.1074306928       10.8460828923
  O        -3.8809478488       -2.1299417439        7.6846415960
  H        -3.0173278276       -2.4910212589        7.1938981339
  H        -3.8847707954       -2.6896055323        8.5041962575
  O       -11.1226223603       -7.3623946503        7.3089392869
  H       -11.7318985478       -6.6088366686        6.9187717984
  H       -10.3770791470       -7.2486004046        6.6950332216
  O         0.4975523799        2.5740877921        6.6751321240
  H         0.3966652895        2.0683724969        7.5076346538
  H         0.8901110944        3.3734908947        6.9646031412
  O         2.6972553647       -4.7927866631        6.5530047517
  H         2.3334329339       -4.2484538376        5.8616192442
  H         3.1357927901       -5.5463664653        6.1223489745
  O         4.4640082872       -9.8153390040       -5.3235173198
  H         4.6570825362       -8.8604604098       -5.4380029838
  H         4.9432290085      -10.2041404273       -4.5128718260
  O        -6.0558665854       -7.6682094621       -5.0138333959
  H        -6.1490175898       -7.2126127799       -5.9386689749
  H        -5.4922502012       -8.4907369472       -4.9078880371
  O        -2.0359387056       -5.6214658303        1.8102543320
  H        -1.6753056763       -6.3917436247        2.2934823146
  H        -2.2595786036       -4.9121878502        2.4917544794
  N         4.3146568689       -0.7427611549        2.9170819545
  H         4.5763809027        0.1788581854        3.2857720801
  H         4.7320649966       -1.4964741239        3.4271293974
  H         4.7319268149       -0.7599593565        1.9588981421
