     193
 CELL 12.4294 12.4294 12.4294 90.0 90.0 90.0 i =    97320, time =    48660.000, E =     -1096.5222357399
  O         7.8695986366       -1.2174929577       49.8337784581
  H         7.2361756445       -1.0287668055       49.0917455089
  H         7.5505595064       -0.8486986906       50.6625461798
  O        11.2571935638       -7.5832341261       45.6586008467
  H        11.5590894458       -8.0556850111       46.4858607149
  H        11.1188789171       -6.5764775189       45.8778412315
  O        11.1572212480       -1.9637600024       49.8652544664
  H        11.7125696130       -2.2423087321       49.1115756549
  H        11.7357246497       -1.7728160090       50.6512532575
  O         8.5379691849        1.4731385200       47.8501851599
  H         7.8746518064        0.8173385881       47.6148664107
  H         8.2393656715        2.3930080919       47.9635958467
  O        -2.0261579392       -4.9652543439       46.4224549665
  H        -1.3997130345       -4.2709285561       46.7096966666
  H        -2.6232231281       -5.0947844989       47.2902254728
  O        18.3346138250       -1.4859574835       56.9251329157
  H        18.6613528037       -0.8859381977       56.2063475288
  H        17.7068695980       -2.1155890367       56.4465732700
  O         7.5157461328       -0.0104741814       40.1374287609
  H         8.4291678239       -0.0687088043       40.4655424088
  H         7.0228478936       -0.8205231441       40.3523128035
  O        14.0386197541        4.4989774352       50.3028471609
  H        13.8577225113        5.2478125725       50.9268294366
  H        14.1674051029        4.8616449175       49.3934992429
  O         6.3007778694       -7.2243853992       38.1114194378
  H         5.9498029862       -6.4129841135       37.7063831289
  H         5.4892101029       -7.6498941933       38.5482975778
  O        12.7484446976       -1.2838873439       39.8137860878
  H        13.3030121306       -0.6985830780       40.4025438599
  H        12.7229781434       -2.1474914762       40.2453819984
  O        11.6620902941       -3.6327940678       41.2118612864
  H        10.7173755554       -3.9205737467       41.0342283833
  H        11.8571209827       -4.1925943227       41.9773838969
  O         3.7627518359        6.1711434494       43.9375214204
  H         4.5200826718        6.7044570283       43.6561071289
  H         3.5800510755        5.6119700779       43.1177101253
  O         1.6933807418        0.0752920393       54.3201210469
  H         2.4470099643        0.6524101367       54.4325249187
  H         1.7632214258       -0.5304416958       55.1188638065
  O         8.4563190523       -2.7917877389       42.7672428684
  H         8.2144181213       -3.0645043501       41.8780299275
  H         8.0487234251       -1.9168363239       42.8688637040
  O         8.7978283533        4.5187107184       44.2651230112
  H         9.5298826432        4.8607276029       44.8853928520
  H         9.3407571106        4.1118990577       43.5171858375
  O        18.5957372280       -0.3119079161       47.2731520056
  H        17.7886182998        0.0663572353       47.6353230624
  H        18.3342003720       -0.8184529265       46.4713953630
  O        17.3753814646       -3.1837626322       42.1561714734
  H        16.4344553511       -3.4647471532       42.0039801501
  H        17.8630335112       -4.0053622679       42.4596983566
  O        10.2855569729        4.4458827350       49.5892454750
  H        10.9831724852        3.9998365421       49.0284687301
  H         9.5957934635        3.8251974113       49.8904669774
  O         7.4593135586        2.3313077981       45.2205766815
  H         7.9005461905        3.1575616443       44.7547939450
  H         8.2395027227        1.8860000634       45.6078677935
  O        10.8719344541       -5.8744886456       51.3989295037
  H        10.1317164652       -5.2110904447       51.2129087921
  H        10.6908595986       -6.4614954633       50.6272769375
  O        14.3544053367        5.4957235588       35.1735930919
  H        15.2015747955        4.9871417700       35.0718232810
  H        14.2567414544        6.1144159325       34.4038971170
  O         5.9727654658        7.0962801800       46.5805631619
  H         6.6621377413        7.6135836496       46.0691001765
  H         5.9870148980        6.3096223262       46.0074383856
  O        14.7278225697        0.4396258421       50.0715761312
  H        14.0609625971        1.0882571360       50.4412409202
  H        14.6128079237       -0.4647961908       50.4164638204
  O         7.4231924225       -8.6082720604       35.6184620854
  H         6.6513616432       -8.7596232269       35.0103663633
  H         7.0541020321       -8.3012233394       36.4868869721
  O         3.8415602794        3.2241216183       46.9737413007
  H         4.4879486604        3.6087956735       46.3474984640
  H         4.3292870469        2.6496205566       47.6530699334
  O        14.8601175632       -2.8822788003       34.8145973062
  H        15.0530365846       -3.3967862212       35.6376675638
  H        15.5195590541       -2.1005019968       34.9143958204
  O        12.2013720487      -10.4456787590       53.7286514790
  H        12.2565431852      -10.3754085025       52.7435208125
  H        12.9840195344      -11.0521488137       53.9005877871
  O        14.7572895619       -3.5599358031       41.3385197915
  H        14.0530060834       -4.1918067815       41.2973071890
  H        14.5245227508       -2.9995622875       42.1522424158
  O         7.8714396801       -4.2040491605       45.0307290833
  H         8.7577393553       -4.2558915596       45.4507097759
  H         8.0127120715       -3.6557120509       44.2596115267
  O         4.6160708114      -10.9675744714       48.9871603082
  H         3.9181651495      -11.4160217974       49.5341917741
  H         5.3336403222      -10.8596352717       49.5874319083
  O         3.3212028173       -0.7008583684       45.5046953959
  H         2.8580562586        0.2064189169       45.4211042727
  H         4.1920923156       -0.5658927753       45.0858338670
  O         3.0879882046       -2.1863656501       51.4306688786
  H         4.0247702284       -2.0756002268       51.4981354202
  H         2.8445651577       -2.6848146724       52.2917723059
  O        13.1137575384       -7.7119370264       41.8687064250
  H        12.9394396950       -7.3752190578       40.9427467264
  H        12.6916196047       -8.5764413241       42.0349805479
  O         6.0572843751        2.1393370456       39.1068984861
  H         6.2314380802        1.3195504610       39.7044067415
  H         5.1530315795        2.5533621012       39.3665125201
  O        19.1266310466        1.0137606699       43.0506618096
  H        19.6004362920        1.0990418705       42.2130549002
  H        19.4470188381        1.5416559519       43.8902066943
  O        16.3321338706        3.8227269673       39.1843992916
  H        15.5830153421        4.1144091753       38.5958566402
  H        16.0914403616        4.0387396634       40.0942006599
  O        12.0071292253       -5.2596199373       43.3224697304
  H        12.5501982212       -5.0730265371       44.0946336581
  H        12.2066839694       -6.1839001371       43.0570065052
  O        13.9968384871       -1.8291291944       43.5939597582
  H        14.4417530377       -1.7764314356       44.4410958280
  H        12.9994580708       -2.0846813292       43.7241109526
  O        13.5815616764       -5.6277589372       51.6338262981
  H        14.0569659477       -4.9059599030       51.1075852827
  H        12.6022723878       -5.5255452817       51.5121800609
  O        18.8633968575       -5.3129423310       42.6262096679
  H        19.4796550681       -5.3399514556       43.3282181651
  H        19.2431083872       -5.9680367949       41.9407107919
  O        -1.5241131835       -0.4559161657       33.7086283368
  H        -2.1446868639       -0.2285789227       34.4410961322
  H        -0.7347581371       -0.0173212949       34.1417734117
  O        12.6053352037        2.2509979400       50.8752585213
  H        12.9579493133        3.1225049355       50.5600350647
  H        11.7950060979        1.9841341860       50.4320851658
  O        10.2885992891        1.1676523654       56.4375243727
  H        10.2566198492        0.5428256986       57.1697301863
  H         9.6444218496        0.7351240784       55.8651175128
  O         9.8880013770        3.3143020970       41.8481219748
  H         9.2936031642        2.9907013334       41.1534284993
  H        10.7503413791        2.9552302418       41.8023389499
  O        15.6394752634        4.3292805848       42.0400329419
  H        15.8208382470        3.5066115890       42.5129796194
  H        14.6339420811        4.3871115995       42.0026194444
  O        22.5759343832       -0.0348437083       40.9869973677
  H        23.2027392547        0.7537271921       41.1065032841
  H        23.0768700974       -0.8014489157       40.6144331908
  O        14.8179847807        1.9381657605       45.1336034815
  H        14.0461907714        2.4240605923       44.7934021896
  H        15.2077845370        2.3382981827       45.9879144144
  O        14.9194097110       -4.0914468755       49.7194365379
  H        15.7301333956       -4.6528051495       49.6007066891
  H        15.2633538505       -3.4108515320       50.3741350088
  O         5.6855821388        4.7411249825       45.2921665243
  H         6.4073524603        4.5145188352       44.6626551090
  H         4.9165956000        5.1694448426       44.8856068724
  O         0.1917252186        0.7625332877       47.8432654401
  H         1.1055029230        0.6999461264       48.2716773392
  H        -0.5589371826        0.7335480147       48.4926418695
  O        18.3483086596       -2.2105473709       39.9158190602
  H        17.9381820632       -2.4755013078       40.8160260666
  H        19.0954390887       -2.8596019054       39.8099369975
  O        12.0467378341       -2.8377722214       47.2382343889
  H        11.6549248102       -2.1771189907       46.6439594772
  H        12.8988301896       -2.4197213485       47.4631987194
  O         3.9514204281        1.7366552809       42.7730743196
  H         3.5287163715        1.8418130937       43.6503575660
  H         4.9205913141        1.5768453149       42.9650082033
  O         8.7184510508        2.6509132975       50.8696032341
  H         8.9981530221        1.7869439695       50.5347335741
  H         7.7355125820        2.4564122246       51.1106914397
  O        12.6881538342        3.1463102876       44.0869488848
  H        12.0798882707        2.4380418736       43.8907377251
  H        12.1381957951        3.9145712639       44.6224215797
  O         8.7506159278       -3.9747007942       52.7514925993
  H         8.5614386295       -3.8507442177       51.7972288710
  H         8.2999543286       -4.8217737806       52.9238247714
  O         5.3142167272       -4.8460409286       49.1065402506
  H         6.0103007834       -4.1539704910       49.3629750623
  H         5.5746088081       -5.0190370997       48.1771037245
  O         1.6431830803       -5.1313269506       45.2910399788
  H         1.8459206823       -4.2217269130       45.6679060066
  H         2.4190151537       -5.3703236348       44.7989588581
  O        12.3348830020        3.5427548561       47.7667475453
  H        12.4847995800        2.6102765610       47.5588857972
  H        13.1681404948        4.0598017027       47.7605774119
  O        10.3805874910        0.8173649624       49.6875920082
  H        10.4333033062       -0.2217983778       49.7742693461
  H         9.6134493056        0.9487227498       49.0417677431
  O        21.0727020711       -5.8144817860       36.0091986664
  H        20.3781828087       -6.0096285587       35.3716938267
  H        21.4458393351       -6.6778950877       36.4190364247
  O         8.1221464302       -3.7755592119       37.6201819810
  H         8.2772050228       -4.4753067576       36.9555525155
  H         8.4648939131       -2.8913378146       37.3053824181
  O         7.8252597493       -6.6687191074       40.6890870969
  H         8.7241035920       -7.1411739379       40.7747926524
  H         7.2819810350       -6.9879548619       39.9198144452
  N        11.3214490727       -1.8959042614       43.6421826561
  H        11.0139879171       -2.1177338799       42.6813438574
  H        10.6764426856       -2.4944868679       44.2205296827
  H        11.2219786334       -0.8813196052       43.7715556769
