     193
 CELL 12.4294 12.4294 12.4294 90.0 90.0 90.0 i =    98520, time =    49260.000, E =     -1096.5247342123
  O         8.2022392015       -0.6569533110       50.0132658076
  H         7.4413041821       -0.7186304118       49.3615712433
  H         7.8328171319       -0.2556955657       50.8702444347
  O        11.5453814697       -7.7617403478       46.4245275622
  H        11.1773282758       -8.2860002105       47.2303963995
  H        11.7886280259       -6.7954620965       46.7501980453
  O        11.0053319554       -1.7529449245       51.2778695228
  H        11.4268067898       -2.1947897127       50.4812972455
  H        11.7730425024       -1.7866621551       51.9508538886
  O         8.2176752109        1.5590123116       47.7890424186
  H         7.5296214535        0.8940738324       47.7489511684
  H         7.8803682180        2.3008706583       48.3377941416
  O        -0.7278400573       -5.4087502090       47.8019222090
  H        -0.5866059354       -4.4395210042       47.5653695706
  H        -1.4184484589       -5.2248307473       48.5705485884
  O        17.3472463446       -1.3159760653       57.2685066672
  H        17.9565287942       -0.6072292213       56.9736766598
  H        17.3904094019       -2.0111644425       56.5843219277
  O         7.4115600392        0.3623526377       40.3277888319
  H         8.1491192913        0.3551729539       40.9791169335
  H         6.9012198771       -0.4304043701       40.5599717486
  O        14.3415436920        4.9137955560       51.3860123531
  H        14.0549536759        5.7609200040       51.7245134588
  H        14.3409769373        5.0627410120       50.4023076529
  O         6.5627235230       -6.3626678128       39.4983019609
  H         6.3287711888       -5.7820912267       38.7255496086
  H         5.7640370898       -6.9338245908       39.8174123993
  O        12.6027241157       -2.1298104698       40.8183034895
  H        13.4046339783       -1.6412360062       40.9206230446
  H        12.1110538382       -1.9759311207       41.6809020094
  O        10.6970342208       -1.4364902401       42.8319751485
  H        10.2502294961       -2.2135881622       42.4770630816
  H        10.8960870139       -1.5813699379       43.8241636504
  O         4.2540618263        6.1188330713       44.8517126196
  H         5.1313510810        6.5496178940       44.6479556650
  H         4.0704836726        5.3799343907       44.1892996542
  O         1.4421304463        0.0559142653       55.0569184365
  H         2.3585816910        0.4225130478       55.0227301126
  H         1.5181543917       -0.8198039485       55.4436406093
  O         8.0553570899       -2.0117333375       44.7004368065
  H         8.2004458116       -2.0545983646       43.7412004277
  H         7.2745651205       -1.4374119162       44.8232579516
  O         9.3491855055        4.7738454310       44.5226928391
  H         9.9416365567        4.8027551759       45.2969717240
  H         9.8271028448        4.5349510549       43.7293007747
  O        18.7050131869       -0.4015262316       48.0612180186
  H        17.9069877102        0.0616760936       48.3825186026
  H        18.2809005900       -1.0113497830       47.4154866485
  O        17.7412255900       -3.2871892982       42.9635525600
  H        16.9034659767       -3.7488302711       42.6003767309
  H        18.4017672546       -3.9328810312       43.1812994975
  O        10.0618620788        5.1323950444       51.2318257716
  H        10.4927119751        4.7611126479       50.4070208629
  H         9.4539080408        4.3585542621       51.4933004590
  O         7.4961440901        3.3548301459       45.5028354292
  H         8.2376306720        3.9180717511       44.9145649273
  H         8.0077217522        2.8340944894       46.1871237520
  O        10.7349992146       -5.9341680623       53.5003897902
  H        10.9644111406       -4.9891893602       53.3492654440
  H        10.6966154792       -6.2739702275       52.6193990190
  O        13.9575613037        4.7568308606       36.2844503830
  H        14.7404721331        4.3825864819       35.7844060629
  H        13.6724063034        5.5742113832       35.8505302460
  O         7.4204187676        7.2069917334       47.7671320364
  H         8.0042724536        7.4567424248       47.0062940967
  H         6.9357709917        6.5141412761       47.3380866035
  O        14.7773244453        0.2575515907       50.7324272281
  H        13.9324919625        0.6177539847       51.0266150885
  H        15.1292258039       -0.3768230617       51.4974168179
  O         7.4198666809       -8.6309876000       36.7774249913
  H         7.0804067502       -7.9131869725       36.2212384368
  H         6.8797292685       -8.5927077586       37.5595132393
  O         3.6541777503        3.0917678142       47.2786789571
  H         4.4068636654        3.7110412063       47.1341153237
  H         3.8894988305        2.5450508113       48.0809222741
  O        14.7045059768       -3.3474188833       35.4288982529
  H        15.3011016644       -3.3130318870       36.2055260160
  H        14.8846436843       -2.4908270302       35.0101991789
  O        11.8452615881      -10.9899459892       53.8342341623
  H        12.2619771918      -10.7079439106       52.9430018881
  H        12.5051490161      -11.6282926431       54.2127841527
  O        15.2487330742       -3.6304983933       41.7782182504
  H        14.9031813237       -4.3359241577       41.1984588877
  H        14.5559741779       -3.3776835958       42.4750752253
  O         9.1175985738       -4.3250412010       45.8565392189
  H         9.8422277045       -4.7956956277       45.5070151158
  H         9.0530463175       -3.5003961333       45.3350843769
  O         4.4842152508      -11.1901636334       49.3842117288
  H         3.6276205769      -11.4792260214       49.8358299206
  H         4.8722705722      -10.6686276915       50.1042761585
  O         2.0780671601       -1.2416198627       45.7377919972
  H         1.9300334377       -0.2407285999       45.5118455715
  H         2.9562754781       -1.3902592327       45.3970901574
  O         3.4307663788       -1.7510793142       52.2589040676
  H         4.4453856941       -1.6380322479       52.5502021679
  H         3.0902270811       -2.3243862882       52.9840099971
  O        12.8177343409       -7.1107992509       42.9025053287
  H        12.1599017342       -6.8917240138       42.2093446534
  H        12.7495026182       -8.0205708164       43.2883095032
  O         5.8402481584        2.4490680350       39.1374519204
  H         6.2512184505        1.7429398257       39.6759350535
  H         5.3310136740        3.1423167739       39.7189472558
  O        19.0319583963        0.9137944484       43.7049067158
  H        19.9099622136        1.0073452296       43.3138901473
  H        19.0457009545        1.6873452874       44.3508575006
  O        16.8568936811        4.3658985485       40.3207939355
  H        15.9679814860        4.5059996023       39.8743824632
  H        16.7106930657        4.4580973741       41.3455046687
  O        12.6620786333       -5.0415421281       44.8497901697
  H        13.4119327683       -5.3905613264       45.4896276322
  H        12.4386934324       -5.7439552602       44.1634622884
  O        13.4413501794       -2.8974809512       43.5853077635
  H        13.7707305053       -2.2487200132       44.2209683097
  H        13.2547614952       -3.7259750757       44.1359664524
  O        14.0831488376       -4.8357836626       51.8516099887
  H        14.8120166234       -4.3947369686       51.3581257958
  H        13.3632039839       -4.1322885737       51.8386763365
  O        19.3687608914       -5.4890573028       44.1378096194
  H        20.0079876660       -5.0933011136       44.7823680752
  H        19.9469606129       -5.9488516744       43.4697107209
  O        -2.2127459404       -0.1079457941       35.0363607192
  H        -2.7659285746        0.6945002328       35.1273375955
  H        -1.3581203513        0.0461191872       35.5139991488
  O        13.1611704177        2.1873912028       51.4843137600
  H        13.6702082702        3.0352061913       51.5510223975
  H        12.5497388626        2.4432161218       50.7493522121
  O        10.1735560882        1.5458171742       57.1186489008
  H         9.9743430827        0.8115969617       57.7564802135
  H         9.7683074568        1.1884432539       56.3085009118
  O        10.3542906456        3.8665965005       42.1612236475
  H         9.8224938409        3.6876348268       41.3440549602
  H        10.9629864571        3.1047777417       42.1527241475
  O        15.3708232198        4.5146402011       42.7296872032
  H        15.2180746581        3.5737549831       42.8302801578
  H        14.5390365972        5.0351567867       42.6578811263
  O        21.6952793145        0.5785323545       42.3277492251
  H        22.3620255501        1.1823633823       41.8419460060
  H        22.1938339702       -0.3025231383       42.5218273482
  O        14.7538808809        1.5736949152       45.2719052082
  H        14.0413379923        2.2067257128       44.8629297247
  H        15.1918654119        2.0684250960       46.0296479620
  O        15.9268981571       -3.6546921363       50.2815060447
  H        16.8666751406       -3.9342050751       50.0925338197
  H        16.0424091437       -2.9455804393       50.9422645720
  O         5.8891838712        4.9621982913       46.8239024523
  H         6.5312457604        4.2344118532       46.3304138763
  H         5.3609545280        5.2869954423       46.0548712267
  O         0.6990381682       -0.3997685445       48.7606148689
  H         1.3177839971       -0.4801211504       48.0659214064
  H         1.3961804498       -0.3853018445       49.4787239793
  O        18.5149476356       -2.1088637215       40.6011417437
  H        18.4952183108       -2.5097339112       41.5064711986
  H        19.2042619442       -2.4813396258       39.9902405449
  O        11.4400012374       -2.8730279010       48.4821475998
  H        10.7346876189       -2.1825342670       48.4660056456
  H        12.2845410424       -2.3403263501       48.4227627535
  O         3.7745012754        1.4928683586       42.7950201769
  H         3.4877219035        1.5173958545       43.7507087075
  H         4.7379846664        1.2189643521       42.7520295442
  O         9.0372061153        2.7544875034       52.1638742367
  H         9.3915232557        1.9993524096       51.5956416579
  H         8.0433654528        2.6203511834       52.0305675303
  O        12.5451820908        2.9721733085       44.5500569715
  H        11.8331963074        2.3255837732       44.5381387650
  H        12.2569632316        3.5596024394       45.3002389246
  O         8.7763613779       -3.4922624929       54.2370989786
  H         8.4884438417       -3.4338048098       53.2561463702
  H         8.6070843920       -4.4510549911       54.4560802681
  O         5.9511312795       -4.3281693157       49.9060321062
  H         6.5434871316       -3.6539739584       50.3910580275
  H         6.3209267536       -4.4154325916       49.0046876195
  O         1.9774131582       -5.9297517608       46.4413625031
  H         2.1227811315       -5.0211654928       46.8308491165
  H         2.7871530580       -6.1025961646       45.8730580792
  O        11.5429740401        3.5586379143       49.1404424854
  H        11.3508906956        2.6178197385       49.0295965351
  H        12.4276228566        3.8192423611       48.9835372162
  O        10.3179034398        0.8985667570       50.1914751718
  H        10.7940949363        0.1115579806       50.6007501223
  H         9.5098627323        0.4520229594       49.9454096739
  O        21.7170246362       -5.1899177604       37.3555610876
  H        20.9286844327       -5.2580103314       36.8165413086
  H        21.7940775980       -6.1368897379       37.8027487917
  O         8.2625199539       -3.2683092887       39.1199085021
  H         8.7296558680       -4.0222107364       38.6837779313
  H         8.8421026153       -2.4803030642       38.9120985516
  O         8.2467772163       -6.3426519756       41.7102426150
  H         9.1977708638       -6.4794521452       41.4365793240
  H         7.7137346566       -6.3457151383       40.8984447905
  N        11.1450474220       -1.9921759213       45.4596165052
  H        11.5098488759       -2.8865005128       45.6086327008
  H        11.8640481128       -1.3390209214       45.7179626931
  H        10.3931014994       -1.9009909340       46.1086909484
