     193
 CELL 12.4294 12.4294 12.4294 90.0 90.0 90.0 i =    30120, time =    15060.000, E =     -1096.5306635010
  O        -3.6601498599        0.8000528474       12.2479480620
  H        -3.4619238787        0.0361317001       11.6191190188
  H        -4.5660187784        1.0426766636       11.9707066670
  O        -0.4656010196       -7.8471921393        8.3240931274
  H         0.3626648827       -8.4694855143        8.3720179062
  H        -0.5215323768       -7.4046253021        9.2346289414
  O        -0.9430455258       -7.0211250062       10.8906279850
  H        -0.9781934636       -7.5681559730       11.7233223223
  H        -1.8806594176       -6.5414211711       10.7917366637
  O        -1.6444290353       -1.1701559953       10.8442999981
  H        -1.3536013601       -0.2462848939       11.0130820910
  H        -1.9906787640       -1.1688325779        9.9073656081
  O       -11.1738462535       -3.9678766132        5.8760872362
  H       -11.8009091220       -3.3953184692        6.4052673015
  H       -11.4025490488       -3.8237708712        4.8996113643
  O         3.3279476946       -5.1135086735       15.1953447165
  H         3.0677651221       -4.9512205830       14.2657078184
  H         2.9046185293       -5.9544675017       15.3609099669
  O        -3.7272082698       -0.4933108396        2.2150374138
  H        -4.1063237373        0.2267999171        2.8157092760
  H        -3.5886078085       -0.0042660293        1.4207674521
  O         3.1234093195        3.2030481235       12.3564565462
  H         2.4145407729        3.5777049478       12.9376422492
  H         2.9984100221        3.7522559294       11.5868316955
  O        -5.1824790220       -7.6873181373       -0.1682090378
  H        -5.3665968048       -7.8426858617        0.8212990528
  H        -5.9099217622       -7.0988618791       -0.3936177241
  O        -1.5437037476       -1.9068050163        3.0006092062
  H        -2.3354093942       -1.3710265528        2.8010922724
  H        -1.4433324664       -2.4019430725        2.1584233167
  O         0.0355162286       -5.8891701055        2.0409062779
  H         0.7023287760       -5.3183452068        2.5190788269
  H        -0.6104647843       -5.9209829004        2.7807669616
  O       -10.1145281355        5.1684135275        4.0376372064
  H        -9.6487659656        4.3022931947        4.3396644020
  H       -10.7805482193        5.3810395638        4.6942650878
  O       -10.9422688690       -2.3290385810       11.8768114049
  H       -10.6383689185       -1.4527579100       12.1955951211
  H       -10.7654351263       -2.4061300968       10.9114697752
  O        -2.3733708773       -3.4451799199        4.9927676552
  H        -2.3368332162       -2.8545554390        4.2344192461
  H        -3.2772927902       -3.3778855718        5.3607326873
  O        -1.8157423777        1.2725693269        5.6555713315
  H        -2.1703224774        2.0058641203        6.1958710390
  H        -1.4659949410        1.5263702034        4.7680345639
  O         7.4803827156        0.0698572122        7.9414241555
  H         7.8528075449       -0.0514677318        7.0307044903
  H         7.7220891866       -0.7772731391        8.3893671308
  O         2.8394510166       -4.7621872804        0.0384077584
  H         3.7808133728       -4.8660207142       -0.1072753427
  H         2.5602422687       -3.8369613739       -0.1031506428
  O        -0.2340891559        1.1658131557       10.7461463888
  H         0.6252243102        0.8287979766       11.1242221001
  H        -0.6125339024        1.8947427856       11.2690895793
  O        -1.1583566110       -0.0838350532        7.9232561957
  H        -1.0695882291        0.3811088111        7.0257324610
  H        -0.7818962222        0.5078821233        8.5840494765
  O        -3.3576908690       -5.9030058861       11.0479131708
  H        -3.4645203688       -4.9507006736       11.4772322221
  H        -3.8771646072       -6.5849490040       11.5787397969
  O         4.0973773878        4.7279749319       -2.1291674822
  H         4.8375804804        4.2526280906       -2.5973589030
  H         3.4787622642        4.9483714113       -2.8709271903
  O        -3.8235686936        1.9501989176        9.2859372155
  H        -4.2063938843        1.0713844316        9.0034296245
  H        -2.9125771171        1.7334192023        9.5185371134
  O         5.0916551228       -0.2574902875       10.4452962443
  H         5.3694371595        0.5644354076       10.8789419495
  H         5.3884787826       -0.9839232489       10.9728777398
  O        -5.2450918130       -7.7902255104        2.5756789781
  H        -5.7788694732       -7.0092195844        2.8615094338
  H        -4.6394454868       -7.8722569969        3.3219800918
  O        -6.4053003774        2.3898342007        5.6969834645
  H        -7.2725817228        2.4849293649        5.2293164752
  H        -6.5124842627        2.9287709596        6.4673782663
  O         5.3293232623       -5.4456977451       -1.0236099930
  H         4.9216429329       -6.2602862061       -1.4687217061
  H         6.1003770335       -5.2576000795       -1.6381422943
  O         2.2485309029      -11.8070920184       11.8329693300
  H         2.4336417986      -10.8440919731       12.0408354293
  H         3.0743405081      -12.1472181897       11.4534568151
  O         0.9956543753       -3.2199731682        3.1891020098
  H         0.2564946609       -2.5672128358        3.3864864149
  H         1.8506408340       -2.7145099219        3.0560620094
  O        -5.7299085645       -6.1046987895        6.5930504179
  H        -5.8323674193       -5.1763291386        6.8620150984
  H        -5.1036993639       -6.1080663032        5.8653387657
  O        -6.1268518863      -10.6328293741       11.7943737499
  H        -6.5572259242      -10.3983820153       12.6873433280
  H        -5.9002674690       -9.7590581416       11.4043813621
  O        -5.9219768344       -3.7164166774        7.7573301492
  H        -5.2462362910       -3.4385851695        8.4767194977
  H        -6.7476715363       -3.7331300284        8.3455268415
  O        -7.2262388465       -2.4440501060       12.2185493453
  H        -7.4485209561       -3.1825923833       11.5922207065
  H        -6.4688396381       -2.6721760348       12.8364787048
  O        -1.9374744320       -9.7012583410        2.8824437192
  H        -1.4542458066       -8.9191613039        3.2738958085
  H        -1.2341048422      -10.4352297993        2.7315430899
  O        -4.1574147799       -0.0887755656        5.2800087726
  H        -4.6251937848        0.5039228301        4.6814695073
  H        -3.1928746124        0.2693296848        5.3975324149
  O         6.4154679131       -4.8202195542        3.3549914693
  H         5.4660555478       -4.9990574393        3.2685485360
  H         6.4384536823       -4.2423526562        4.1486744094
  O         5.2441345366        2.8039055090        1.6987983245
  H         4.5439316387        3.2418129187        1.0865088275
  H         5.9442564941        3.4139251120        2.0415996436
  O         1.1004036495       -5.3733480183       10.2700444214
  H         0.4202119019       -5.8508808535       10.7459253094
  H         1.7392367061       -5.1130068847       10.9591222604
  O         3.4807718873       -1.9553517925        2.2955226757
  H         3.8530093993       -2.3193931875        1.4507745483
  H         4.0479535259       -2.4043286362        2.9964990865
  O        -0.9847111109       -3.2261911758       12.9935222791
  H        -0.2062284388       -2.7655047727       12.5264041953
  H        -0.4781704793       -4.0657783897       13.2183268548
  O         4.0097122622       -5.8306345695        6.1239704060
  H         4.8990611976       -6.2025187460        6.1842796602
  H         3.5903884585       -6.2324323469        5.3177426701
  O        -8.0358726108       -3.6832182700       -3.1677473939
  H        -8.9611386475       -3.3103844999       -3.3996400920
  H        -8.1638879218       -4.5652600574       -2.7888213799
  O         0.9987272190        4.0727027558       13.9902473107
  H         0.7756285522        5.0560273068       13.8944723621
  H         1.3886055540        4.0853250212       14.8883229210
  O        -0.1352314705        0.6732947368       15.4877157845
  H        -0.4383630723       -0.2379588201       15.5122400444
  H         0.8309861907        0.6350354460       15.6733270970
  O        -3.8539322474        4.5732584144        4.8062252723
  H        -3.1139029486        5.2767671617        4.7748265502
  H        -3.7439109316        4.0791306388        5.6277962670
  O         3.7707960677        2.6384322151        4.1508620953
  H         3.3275025427        1.7472320618        4.1000694769
  H         4.2840493790        2.5660657167        3.3301522402
  O         7.6976805442        1.8364047847        3.3842659752
  H         7.0319154542        2.3005768626        3.9128972497
  H         8.5912731400        2.2696772579        3.5057611659
  O         2.3409061221        0.0707258801        4.0259292341
  H         2.8638248254       -0.5426991614        3.4718764132
  H         2.2693476796       -0.2561382462        4.9496954869
  O         4.6610690450       -0.8191590999        7.8418484176
  H         4.5045770528       -0.6634508818        8.7839671962
  H         5.4982054245       -0.4331017835        7.6697804065
  O        -2.6335834022        3.3714173832        7.0479459942
  H        -1.8510157684        3.8515489774        7.4231538601
  H        -3.2676223913        3.2374301414        7.7924536228
  O       -10.2854847444       -0.3647825979        6.6852736755
  H        -9.3841479293       -0.3316189306        7.1143744824
  H       -10.7823885018        0.4149662239        7.0437146040
  O         7.4729474015       -2.9014512622        1.5853638441
  H         7.1566788178       -3.6453105708        2.2198800159
  H         7.7886098586       -2.0794241128        2.0697990801
  O        -0.9823452180       -2.9025185684        7.5403692302
  H        -0.7770875403       -1.9128796436        7.7551446674
  H        -1.5412646612       -2.9325099138        6.7773669590
  O        -4.7672054837       -2.7420205146        5.5164727623
  H        -4.7015074989       -1.7796134731        5.3994148558
  H        -5.3135796576       -2.9605803719        6.3612614119
  O        -1.8821274817        2.9380175856       12.3649421313
  H        -1.7635430088        2.7941300156       13.3377854200
  H        -2.6860359231        2.4447011285       12.2211588595
  O         0.3962006508        5.9403271166        5.8994518816
  H         0.6508163393        6.8565745633        6.1459621369
  H         0.2357759032        5.4410369590        6.7349521312
  O        -3.5463324320       -3.2946862856       11.7092858942
  H        -2.5636975758       -3.3238076067       11.8460774845
  H        -4.0127234904       -3.1857425427       12.5787820883
  O        -3.9246289080       -2.3265675688        9.0847415319
  H        -3.2054546551       -2.6686620440        8.6128702956
  H        -3.6468571036       -2.5085875866       10.0457356513
  O        -9.9774111391       -6.9331349712        8.2781964854
  H       -10.6503205752       -6.3959954684        8.8117633278
  H        -9.5278107623       -6.3296266157        7.6280308666
  O         1.2595837567        2.0655197306        8.4305609820
  H         0.9051531911        1.6166343349        9.2700365143
  H         2.0919931009        2.5266942283        8.7514750169
  O         1.9345064263       -2.3182638990        8.9988467751
  H         1.8216671229       -1.6679422881        8.2446271934
  H         1.3128687272       -3.0455605406        8.9010861256
  O         6.0523678807       -8.8489202720       -3.7887079255
  H         6.5294128698       -8.0033797391       -3.7944816020
  H         6.8045700731       -9.4115921882       -3.5265220546
  O        -5.4608061908       -6.2995642589       -3.0651415199
  H        -5.3886102297       -6.0310567879       -3.9738773528
  H        -4.5531955614       -6.3098594878       -2.6627464955
  O        -1.8873331012       -6.0427365091        4.1934154927
  H        -1.1252545140       -6.3843466695        4.7163950040
  H        -1.9740907732       -5.1059800733        4.5085143900
  N         4.0237491769       -2.7557100872        5.2700982174
  H         4.5735213647       -2.0600540812        5.7049476733
  H         3.0429028619       -2.6040985213        5.5384757798
  H         4.2588249488       -3.6366381805        5.7099794173
