     193
 CELL 12.4294 12.4294 12.4294 90.0 90.0 90.0 i =    37320, time =    18660.000, E =     -1096.5308307846
  O        -2.5303022708        1.0238473860       17.0957780741
  H        -2.3136889811        0.3106675167       16.4624531977
  H        -3.3444087137        1.5824442252       16.7773940518
  O         1.1211801963       -7.9666406782       11.9973866491
  H         1.6337563511       -8.7565358923       12.2277839776
  H         1.1485576124       -7.4713829338       12.8733886705
  O         1.0190303188       -6.1212120325       14.0068730433
  H         1.5072976550       -6.4027394184       14.9111319834
  H         0.0833729318       -5.9743408911       14.2371145606
  O        -1.6632495422       -0.7743966310       15.1821451198
  H        -0.8790219985       -0.3356531043       14.8873998727
  H        -1.6866220385       -1.7234711040       15.2157508356
  O       -10.6678084513       -3.6457540879       10.5359909252
  H       -11.6005693916       -3.1664358910       10.6602404124
  H       -10.3855236073       -3.2597412316        9.6114552811
  O         4.7871822520       -5.6445791226       19.0680219065
  H         4.5914918739       -5.1717359062       18.2339426434
  H         3.9180768034       -5.9830924340       19.3685207852
  O        -2.7934978582       -0.6957799509        6.8611392406
  H        -3.1728341767       -0.3730747374        7.7774662818
  H        -2.7758350920        0.0660814759        6.2574251374
  O         5.1312823146        4.7999962740       16.3686875931
  H         4.4911271229        5.4334034204       16.7565494046
  H         4.5244906633        4.2060931986       15.8362354754
  O        -2.8224047561       -7.9264468472        3.6854256315
  H        -2.0067249195       -8.5097749996        3.6213740162
  H        -3.0643422499       -7.8701021072        4.6252452672
  O         0.1386531077       -1.3287409292        6.5196230933
  H        -0.7973642154       -1.0031729721        6.5041899933
  H         0.2279540482       -1.8794374577        5.6425798711
  O         1.4279138444       -4.5664678828        6.1457094813
  H         1.8883284757       -3.8977564589        6.7313451170
  H         0.9250618204       -5.0931510522        6.7338404414
  O        -9.6073091310        5.0653273028        7.8439410337
  H        -8.9166024169        4.4048657791        7.8412108291
  H        -9.8302130292        5.4392421243        8.7480282785
  O        -9.8473192820       -2.3463591863       15.5569692565
  H        -9.6757990377       -1.5035748848       16.0319631273
  H        -9.8907203191       -2.0159597489       14.5794453892
  O        -1.6542890418       -3.5948455669        8.0370971943
  H        -1.3967693453       -2.7973395768        7.5069999957
  H        -2.5092236943       -3.2996344490        8.3414327042
  O        -1.6116717899        1.7499223538       10.0138840225
  H        -1.5676082381        2.4839387103       10.7620282236
  H        -1.1459907416        2.1670572318        9.2290606725
  O         8.6968393226       -0.7141744362       12.1755134535
  H         8.8076362954       -0.3772537364       11.2587917272
  H         9.0944044447       -1.5910062343       12.4052058023
  O         4.4437023898       -4.3847413732        4.1754873789
  H         5.1897808775       -4.6043158103        3.5333564764
  H         3.7836561000       -3.7667617678        3.7093977700
  O         1.0390459478        1.1307591984       14.6847135885
  H         1.7376627965        0.9663714874       15.4322480808
  H         0.4512864639        1.8021655980       15.0984894585
  O        -0.1576743385       -0.4990562257       10.6062684723
  H        -0.7485697939        0.2459662761       10.4403538532
  H         0.6843339367       -0.2285973636       10.9444996109
  O        -2.0383395364       -5.9308428363       14.4268826525
  H        -2.1749271567       -5.1301473169       14.9324625718
  H        -2.2648761567       -6.6841698102       14.9897931823
  O         4.2617260618        3.6149070849        1.7270565582
  H         5.0651636468        3.0886151159        1.3915262254
  H         4.5095821925        4.5172646740        1.3243572606
  O        -2.8416320782        1.7886295650       13.6136828620
  H        -2.8124643573        0.9334828076       13.1012727613
  H        -2.7220362052        1.5738800452       14.5473004884
  O         5.6695954731       -0.2993528780       15.9690813181
  H         6.4434156945        0.4481439478       16.1435713676
  H         5.8218709688       -0.9988424163       16.6906471083
  O        -3.4763468441       -8.2184267072        6.4376043655
  H        -3.5505865283       -7.2424097966        6.6271897004
  H        -2.6247640367       -8.4498682674        6.9490540264
  O        -5.5634760094        2.3694527491        9.9031766988
  H        -6.2259438394        2.4295217639        9.2375322836
  H        -5.7371459187        3.2335501348       10.4566767444
  O         6.3025790551       -5.4023309304        2.6672327408
  H         6.2004189965       -6.3487098715        2.6993436917
  H         6.3737983842       -5.2734377594        1.6751843854
  O         3.1572189611      -12.1216931972       16.5678562445
  H         3.1303762990      -11.9399069918       17.5111699629
  H         4.1182245404      -12.2569838441       16.3495270308
  O         1.8902896167       -2.6160778655        7.9803171970
  H         1.0853655206       -2.0784246656        7.6890121357
  H         2.6654255016       -1.9863193289        7.8249999703
  O        -4.7300268288       -5.6458166241        9.3793138604
  H        -4.8372397913       -4.8524240444       10.0146583101
  H        -3.8388206826       -5.9728763027        9.6121858496
  O        -4.9426419865      -10.5883825002       16.4153807544
  H        -5.3825671200      -10.0868477415       17.1906838811
  H        -5.2936872443       -9.9909893652       15.6781429675
  O        -5.0453493675       -3.6860460984       11.4377468216
  H        -4.2641197959       -3.7436461806       12.0879407361
  H        -5.8900169615       -3.6109102280       11.8658981324
  O        -6.4661998799       -2.2194010205       17.8330221472
  H        -6.9805174818       -3.0893859405       17.5678862531
  H        -5.5260428909       -2.5464213359       17.9636852923
  O         0.9933792994       -8.6628664137        6.1352784927
  H         1.3457012816       -8.0824073230        6.8465080746
  H         1.3552100398       -9.5435889777        6.1392481379
  O        -3.7139106667        0.4496554210        9.3506939865
  H        -4.4121654580        1.0938665200        9.3792702348
  H        -2.9875761701        1.0343821335        9.5707604646
  O         7.6981479098       -5.4543920907        6.5945157175
  H         6.7689707520       -5.8000714421        6.5697636377
  H         7.7575739776       -5.3365274540        7.5672693345
  O         6.2985899619        3.4638780937        5.8665198876
  H         5.9790784337        4.1549804507        5.1843130615
  H         7.2218492571        3.6838529642        5.9736636298
  O         2.9493953218       -4.8292093530       12.6334076636
  H         2.1710568564       -5.2275337667       13.0973930906
  H         2.6098741621       -4.5153493468       11.7550069159
  O         4.2564720164       -1.6179434571        7.5282534570
  H         4.7688947797       -1.6776189495        6.6662078740
  H         4.5478263889       -2.4934430288        8.0667865692
  O         0.3870756424       -3.0853293988       16.7650020008
  H         1.1053272535       -2.7052156664       16.2401928312
  H         0.9514380033       -3.7635468997       17.2892001720
  O         5.5723732875       -7.0585615038       10.1413585703
  H         6.2931520123       -6.5304601697        9.6977405848
  H         5.2455879187       -7.8032764952        9.6116768543
  O        -7.3793881958       -3.1389873538        0.2792469680
  H        -8.2324436811       -3.5783210541        0.4082736369
  H        -7.4829641153       -2.2083647186        0.5942878351
  O         2.3111388637        5.5528884385       16.7326369347
  H         1.9162492197        6.2078141438       17.3455225148
  H         2.0622901255        4.6873423725       17.1165689675
  O         1.6929054382        0.9077720278       19.0782140006
  H         1.1707914347        0.1172326617       18.9798939794
  H         2.1806394663        0.7889211303       19.9298401768
  O        -2.0209410150        5.2557532371        9.8679951920
  H        -1.4473680133        5.7195562547       10.4992399689
  H        -2.7417630069        4.8301934085       10.4450176129
  O         4.5970515561        3.0654621655        7.9974543081
  H         4.1835235856        2.1385505377        8.0052536609
  H         5.2271577217        3.0309006762        7.3116809330
  O        11.1841825776        3.3854250977        7.7452600958
  H        11.1679278868        4.2369137755        8.3240264702
  H        11.8955863628        3.4132275471        7.1058251063
  O         3.6651636230        0.6999160487        8.7615177820
  H         3.9685237764       -0.1017054764        8.2872543377
  H         3.8269320416        0.5999850614        9.7346924218
  O         6.1103650923       -0.4630562153       13.2326470293
  H         5.9400735600       -0.5425962016       14.2047622544
  H         6.9887322575       -0.8341726630       13.0236986266
  O        -1.7912860105        3.6114583126       11.9688821251
  H        -0.8491524194        3.9347288806       12.0858841052
  H        -2.0859222201        3.1785045010       12.8065367762
  O        -8.3581416490        0.3704589979       11.4619852755
  H        -7.5142236853        0.1697289618       11.9135345079
  H        -8.9281928595        1.0619784566       12.0184562626
  O         8.6361471831       -3.0300603728        5.3781109930
  H         8.5034491020       -3.9261249763        5.8193207135
  H         8.9578738655       -2.3418980837        5.9664956961
  O        -0.8353625793       -3.0876195021       10.7789356781
  H        -0.6955622854       -2.0598255739       10.7407521353
  H        -1.1855831360       -3.3036974013        9.8651868827
  O        -4.0849047822       -2.4580043575        9.1871237746
  H        -3.8016067762       -1.5732887844        9.3055190650
  H        -4.6180785267       -2.7323125312        9.9413917497
  O        -0.5842984172        2.7378675313       16.5291242094
  H        -0.2014990548        3.2505069911       17.2596467979
  H        -1.0970581327        1.9259622551       16.8457434508
  O         1.3446171644        6.1806434777        9.9580839965
  H         1.4075029966        7.1240965615       10.2721782737
  H         1.2304467431        5.5398657044       10.7031026750
  O        -1.9739988684       -3.4417432421       15.7247780583
  H        -1.0869978750       -3.4019033415       16.1414946343
  H        -2.6245873865       -3.2458137435       16.4229606008
  O        -2.6961787458       -3.2696553433       12.6070625121
  H        -1.9152722059       -3.3829983708       11.9987919840
  H        -2.5142060991       -3.8272278115       13.4153919031
  O        -7.1949542231       -6.4853132580       12.8982396026
  H        -8.0055719580       -5.8303947611       12.8832650253
  H        -7.0340017811       -6.8396832372       11.9316814215
  O         2.6036464188        2.0536986067       12.6983165569
  H         2.1224444463        1.5699140976       13.4101305309
  H         3.1043658814        2.8183548660       13.1615095139
  O         2.3523432813       -1.5715326323       12.7493231879
  H         3.0895050931       -1.1446809058       12.2571649695
  H         2.0784042601       -2.1792061811       12.0312015510
  O         6.6763275233       -9.7992072479        0.6954602075
  H         7.6365153098       -9.7254454989        1.0163224284
  H         6.7942402541      -10.7661039307        0.3822206800
  O        -4.0423353558       -6.6582343471       -0.2709873152
  H        -4.9745285422       -6.8613220832       -0.0378361828
  H        -3.4620794672       -6.4989504722        0.4886466355
  O        -0.2262270405       -6.1110841084        7.7970952160
  H         0.3315330855       -6.1224528941        8.6521761629
  H        -0.9163930450       -5.4679139857        8.0100587333
  N         4.7799671247       -3.8302645133        9.1825372092
  H         5.0242139881       -3.5236984591       10.1569742854
  H         4.1661269323       -4.6313737377        9.3049322579
  H         5.6764596852       -4.1317323377        8.8114296416
