     193
 CELL 12.4294 12.4294 12.4294 90.0 90.0 90.0 i =    46120, time =    23060.000, E =     -1096.5473923813
  O        -0.2774259861        0.0426934104       21.3229781921
  H        -0.1261755053       -0.3965870933       20.3937962717
  H        -0.7541793056        0.8543122914       21.1663222915
  O         2.6154545509       -7.6004638416       17.2918967820
  H         3.0929873513       -8.3647143049       17.6475292755
  H         2.5879181091       -6.8799614716       18.0558452088
  O         2.3447068566       -5.9144866168       19.1313520209
  H         2.8658566140       -6.1559593995       19.9483232990
  H         1.3370798695       -5.9129873379       19.3031194076
  O         1.0726946661       -0.7034414229       18.9098450092
  H         1.6543588241       -0.1682291512       19.4746271385
  H         1.0950215611       -0.1808062348       18.0630224959
  O        -9.0149204481       -3.6247755474       15.8900229168
  H        -9.9693917367       -3.4529333391       16.0608625302
  H        -8.8991453589       -3.5024195026       14.9113783215
  O         6.9710746943       -5.8351647278       24.2985454655
  H         6.8217428573       -5.7679937357       23.3222922220
  H         6.2362388970       -6.4042182642       24.6957582181
  O        -0.7553258114       -0.5632233153       11.4618422820
  H        -1.5579729545       -0.1919345345       11.9055188244
  H        -0.5543544629       -0.1856099340       10.5811485576
  O         5.7651151596        3.7866817992       22.4530085062
  H         5.1854405526        4.5707367573       22.5734217281
  H         5.8872962620        3.7355714531       21.4701144510
  O        -2.0118754404       -7.4135286305        8.6372855902
  H        -2.1227730627       -7.1384496715        9.6090053339
  H        -2.8587321099       -7.1228691152        8.1893561349
  O         1.5699185580       -1.4347714915       12.3984291373
  H         0.8425823803       -0.7423413099       12.2379867255
  H         1.6120739948       -1.8452683766       11.5180578356
  O         2.5839055254       -4.5656277334       11.0149487535
  H         3.2350141460       -4.1390498481       11.5986491996
  H         1.7622513684       -4.7890877608       11.6304089477
  O        -7.3107104681        5.0699460842       13.1380870726
  H        -6.8330862248        4.2823432759       13.4832355439
  H        -7.9180006149        5.3122161503       13.9301137977
  O        -7.6375667664       -2.8970544291       20.8575096912
  H        -7.7809398529       -2.2011667795       21.4855879141
  H        -8.4914651712       -2.9061900205       20.2969635861
  O        -0.2145221675       -2.9676178322       13.9618947167
  H         0.5259372059       -2.4767155616       13.5929826816
  H        -1.0504650727       -2.4609744002       14.0765442894
  O        -0.7183357212        1.1720729295       14.4061537954
  H        -0.8899801867        1.6002288265       15.2820667132
  H        -0.5400727633        1.9007432918       13.7193706021
  O        10.0516780809        0.5970306321       18.2888556403
  H         9.8406740856        0.9755660843       17.4154663214
  H        10.4236814424       -0.2661304945       18.1798236912
  O         6.1380085661       -5.1501139172        9.0268295465
  H         6.9350737538       -5.3032271605        8.4350900066
  H         5.8558212962       -4.1856730775        8.9088211108
  O         2.4003809564        1.0673277597       20.1643733704
  H         3.0508905851        0.7414897543       20.8837631211
  H         1.8685855182        1.6795910546       20.6843605649
  O         1.5148271339       -0.4433335693       15.8434733266
  H         1.1115971312        0.3836736352       15.3861513966
  H         2.4492019604       -0.2736889107       15.8538002711
  O        -0.3869873344       -5.5096570754       19.6170264555
  H        -0.6406085403       -4.5675521426       20.0740894469
  H        -0.9740273187       -6.1482441215       20.2099384620
  O         5.9553295674        3.0088149601        7.3207489128
  H         6.5903735760        2.3164817639        7.3939570725
  H         6.3681686038        3.6303384254        6.7149289029
  O         0.0131254830        2.7605257819       19.0522572830
  H        -0.5905194773        1.9914050773       19.0915100875
  H         0.1832265031        2.9571701757       19.9671043011
  O         6.8532813757        0.5197700803       22.8887799161
  H         7.4854178790        1.2016631114       23.1681926165
  H         7.1945700339       -0.3749543847       23.0805209876
  O        -2.0689499027       -7.3357964496       11.3690564726
  H        -1.9661478781       -6.4986431551       11.9041556118
  H        -1.3283616407       -7.9545277007       11.5414570342
  O        -3.1548916673        2.3003234229       16.4567235886
  H        -3.1533497309        3.2176439057       16.7486770996
  H        -3.4777738888        2.2735238148       15.5475719620
  O         8.2397271892       -6.0773441506        7.3376719272
  H         7.6939221937       -6.6284892555        6.6277937855
  H         8.9329729206       -5.6514047193        6.7030744999
  O         4.2852368124      -12.6590977154       21.9530097519
  H         3.9998373934      -12.2733245921       22.7691026514
  H         5.2093333595      -12.2143628472       21.9472925880
  O         3.6323212197       -3.1808847725       13.2624295349
  H         3.1992716728       -2.3399090750       13.1333269137
  H         4.5468921853       -2.9508572945       13.0036768845
  O        -2.5897729278       -6.9567159629       14.9158565405
  H        -2.5561995991       -6.6618542547       15.8505730480
  H        -2.3664525937       -6.1315119402       14.3621482426
  O        -2.4868093226      -10.2309036047       21.4496381822
  H        -2.9761314864      -10.1600216407       22.2992453468
  H        -2.4018418679       -9.2665691319       21.2278998648
  O        -3.5348968314       -2.8968492042       16.8796965459
  H        -4.3964661158       -2.8003476032       17.2732357794
  H        -2.8768140492       -2.4443844125       17.4516633902
  O        -4.9060920398       -2.2000082942       23.0149428461
  H        -5.1875538884       -2.8873061186       22.3811690189
  H        -3.8910650461       -2.3763887696       23.1329412734
  O         2.8460487149       -9.2078314180       11.4033819693
  H         3.4377954338       -8.6330409629       11.9586798181
  H         3.3781120741      -10.0656739255       11.3472655241
  O        -3.0984864135        0.0232092338       13.1162436249
  H        -3.8133252405        0.6771880822       13.2936273865
  H        -2.3045757908        0.5169778112       13.5232562393
  O         9.2888375971       -4.8911614953       12.6873353338
  H         8.4013896418       -5.2402629530       12.4232061704
  H         9.1639932001       -4.0952278994       13.2448958720
  O         8.1696904971        3.3882064585       11.0927971789
  H         7.2664194388        3.6560671709       10.6754450961
  H         8.6873274010        4.1766657379       11.4542751289
  O         5.1744740808       -4.6579292482       17.8628430042
  H         5.7091315142       -3.9032371739       18.1764500847
  H         4.6053853335       -4.2368547134       17.1794220071
  O         6.2495133743       -2.4715175721       13.0650289837
  H         6.8463539629       -2.5527826058       12.2801538744
  H         6.5709165558       -3.1014588763       13.7555165000
  O         1.2913529170       -2.4546800604       22.2649180486
  H         1.9083066439       -2.0425292424       21.6433323710
  H         1.8512194919       -3.2229611472       22.6330810609
  O         7.2851779627       -7.9005135928       15.2436744822
  H         8.1508459952       -7.5001864260       15.0437886797
  H         7.3570661040       -8.8089495166       14.7884593825
  O        -6.1182230595       -1.9417458330        6.3060745542
  H        -6.6535720617       -2.1429160941        7.1178001226
  H        -5.5638577705       -1.2036930854        6.6362394137
  O         3.7346196433        6.1104027013       21.4341237967
  H         4.6607096439        6.5172263707       21.3458950293
  H         3.2780309505        6.7088581643       22.0896856669
  O         3.5089961773        0.5569765091       24.4821571133
  H         2.8326988197       -0.1384909554       24.6805387164
  H         4.2657581655        0.3713070300       25.0972008461
  O         0.3427298604        5.2047071256       14.2088331022
  H         1.3251695594        5.2463860810       14.2110993884
  H         0.1185522630        4.7321799218       15.0606230603
  O         7.4265146406        2.1727412380       13.8678222647
  H         6.7469620816        1.4068057077       13.8968615854
  H         7.3930959266        2.5173190793       12.9845367867
  O        12.4820084532        2.9861101209       12.3646661102
  H        12.4914348744        3.8062865607       12.9396784518
  H        13.4884171778        3.0201609448       12.1631326872
  O         5.6842599870        0.0746714386       13.9145942610
  H         5.8656770680       -0.7886433741       13.4927558869
  H         5.4460785420       -0.1366972446       14.8652509352
  O         7.7226291071        0.4817457742       19.9678678477
  H         8.0644338707        0.3386491667       20.8563908829
  H         8.5624480948        0.7014968974       19.4204423026
  O        -0.0917892592        3.5750526774       16.2522303564
  H         0.6675285202        3.9770110596       16.7646868910
  H        -0.8979025918        3.8675780086       16.7277569659
  O        -7.7116924799       -0.1613669056       16.2929277044
  H        -7.2976589413       -0.8654318106       16.8296090006
  H        -8.0221380355        0.5252883937       16.9548057821
  O        10.3194596923       -2.9128555848       10.8585188007
  H        10.1048091071       -3.5771993903       11.5736410088
  H        10.7856066651       -2.1221491654       11.2604096767
  O         0.4863077612       -2.8712666086       16.7251591877
  H         0.8027797458       -2.0742898897       16.2965535752
  H         0.0079451314       -3.2777234373       15.9725732374
  O        -3.0013897089       -2.6519086542       14.1524801718
  H        -3.4337529869       -1.9834398705       13.5502562801
  H        -3.2969234936       -2.3777912009       15.0702397176
  O         0.9894121357        3.1522336544       21.6501664431
  H         1.8266736184        3.4384863447       22.1422074960
  H         0.2799818083        3.0109546092       22.3581669173
  O         3.0746676050        5.8396810081       15.0472757626
  H         3.0732003895        6.8366124011       15.2101055286
  H         3.0880953139        5.4110848264       15.9603249502
  O        -0.9285017853       -3.2074570167       20.8692524858
  H        -0.0449526322       -3.0171885221       21.3650837726
  H        -1.5641007322       -3.3435558619       21.5952440285
  O        -1.5592144988       -1.9560685453       18.3581772774
  H        -0.7198761517       -2.0920069885       17.8110100691
  H        -1.2331663063       -2.2579125454       19.2409208348
  O        -5.9731104549       -7.1616360732       17.7794264292
  H        -6.5196787423       -6.3397365846       17.7114635801
  H        -5.8210930460       -7.3722938345       16.7975448776
  O         4.0215562417        1.8911024200       18.0992483988
  H         3.3163316391        1.6989000214       18.7776525716
  H         4.7596372079        2.2357058894       18.6390908270
  O         2.5591739537       -2.9726822843       19.5389068547
  H         2.0589551178       -2.4222505843       18.8719187687
  H         2.2436054658       -3.9076683824       19.4296703519
  O        10.4092291252       -8.0267730431        5.5115771378
  H        10.2479905321       -7.0813291747        5.4943824684
  H        10.9572033881       -8.3117970097        6.2255555352
  O        -2.4820411362       -5.3329179026        5.2115322549
  H        -2.8171372914       -4.5787929887        4.6969497580
  H        -1.6672471069       -5.0394698917        5.6911045866
  O         0.2021533862       -5.1374991750       12.2746896783
  H         0.2124407129       -6.0251875295       12.7020729095
  H        -0.0820464069       -4.4879804185       12.9703143614
  N         6.6535260825       -4.4825744718       14.8760425165
  H         5.8305211103       -4.4136567294       15.4654994637
  H         6.6343806408       -5.3889148284       14.4951019091
  H         7.3625090515       -4.4488720252       15.5380182914
