     193
 CELL 12.4294 12.4294 12.4294 90.0 90.0 90.0 i =    36920, time =    18460.000, E =     -1096.5349893873
  O        -2.6595312652        0.8674638427       17.0638334544
  H        -2.2404021085        0.3694210392       16.2712632931
  H        -3.5629751467        1.2703812254       16.7357855223
  O         0.6632054039       -7.9979055444       12.0823393139
  H         1.3865036231       -8.7214723141       12.2479437686
  H         0.8007466708       -7.4002220011       12.8139943158
  O         0.9663628032       -6.0661145620       14.2470222072
  H         1.2946175465       -6.5198714209       15.0560735948
  H        -0.0647837528       -5.9011273038       14.3667358434
  O        -1.7048254464       -0.3598941918       14.9267492515
  H        -0.7405526076       -0.1435044769       14.7621295946
  H        -1.7109124293       -1.2858469073       14.5921475856
  O       -10.7213423473       -3.9817100530       10.0116048693
  H       -11.6918080205       -3.8872021495       10.2220871987
  H       -10.5794855062       -3.6171684018        9.0794500527
  O         4.6018690219       -5.5542037442       18.6085923002
  H         4.2570327435       -5.0877144485       17.7962075989
  H         3.8631872964       -5.8369954220       19.1428162826
  O        -2.7129244819       -1.1240419036        6.7027654932
  H        -3.0896886267       -0.9413284832        7.5569088160
  H        -2.7398804096       -0.1704554114        6.2346414434
  O         4.9600946031        4.7228061777       15.8768971524
  H         4.1168155835        4.8012199588       16.3677828078
  H         4.7457116050        4.2558151382       15.0126458606
  O        -2.6638376389       -8.2179616842        2.9769638178
  H        -1.7799087557       -8.7035084526        3.1494297666
  H        -3.1107524348       -8.0416376242        3.8359557723
  O        -0.1597847412       -1.7151533837        6.5591393019
  H        -1.0810598410       -1.3015751938        6.5712514154
  H        -0.0438646395       -2.1379775962        5.6033087521
  O         1.4386195580       -5.0497187801        5.7174958417
  H         1.9500617560       -4.3965374829        6.1258760929
  H         0.9021620120       -5.4279813620        6.4889491458
  O        -9.5523608241        4.8983687766        7.6191709572
  H        -8.9240254044        4.1256612877        7.6471189786
  H       -10.0247638980        4.9589270439        8.4672344001
  O       -10.4512120729       -2.4601532338       15.1210334784
  H        -9.9801826488       -1.7006114862       15.5958965431
  H       -10.6758753562       -2.1778796133       14.2272484147
  O        -1.6312079657       -3.5384780469        8.3739570873
  H        -1.2117997744       -2.7788790417        7.8841838241
  H        -2.6602793344       -3.3260579715        8.4452459613
  O        -1.3738807039        1.9279662491        9.7242442222
  H        -1.2960204100        2.5880290229       10.4846112314
  H        -1.4856895405        2.4712634283        8.8777776754
  O         8.3809973777       -0.2194177174       12.0849411515
  H         8.6645933901       -0.1182896990       11.1033531646
  H         8.9164757827       -0.9409950307       12.4585349990
  O         4.3900666849       -3.9038449300        3.5532516226
  H         5.0814988089       -4.2724180894        2.9502050990
  H         3.6918100521       -3.4812381387        3.0315433234
  O         0.7898675740        1.0234775697       14.7946274319
  H         1.4607493363        0.5393400323       15.3484693287
  H         0.4888072147        1.6603613662       15.4775894359
  O         0.0378516921       -0.2287938410       10.1772588539
  H        -0.4527976057        0.5657591917       10.2457491442
  H         0.6883179623       -0.0208423287       10.8759482075
  O        -1.6912168505       -5.6665526393       14.3852024651
  H        -2.0350915302       -4.8730280311       14.8703007776
  H        -2.1968195826       -6.4480400935       14.6654617765
  O         4.4653497256        3.6581840965        1.0427339887
  H         5.2678371730        3.1521048619        0.6465774515
  H         4.5137978213        4.5870931552        0.5541554400
  O        -3.4782770367        1.7946205946       13.5878627856
  H        -3.5657277718        1.0049180456       12.9844760725
  H        -2.8800988192        1.5579157353       14.2543288190
  O         5.4847149519       -0.0227469874       15.5033268517
  H         6.1313884025        0.7187136210       15.6702985804
  H         5.9221172513       -0.8553299887       15.9615461024
  O        -3.7465079286       -7.5352282277        5.6927506631
  H        -4.0518630215       -6.5798847719        5.7882395146
  H        -3.1472220540       -7.7867344341        6.4009762005
  O        -5.0074424710        2.5276544617        9.1751911739
  H        -5.9028565495        2.8143683884        8.9857383509
  H        -4.6776591909        2.6574182325       10.1585271111
  O         6.1731289209       -5.5121510541        2.0188017314
  H         5.8314778829       -6.3753182250        2.3476128030
  H         5.9766363294       -5.6602167800        1.0860491685
  O         2.9064793672      -12.6642451580       16.3835284584
  H         2.7332037106      -12.4064954575       17.3336925657
  H         3.8223574385      -12.4257849344       16.1233245175
  O         2.3941707684       -3.1819332199        7.5407095424
  H         1.7150435479       -2.4309582163        7.4256496171
  H         3.2885161501       -2.7591363540        7.4485652778
  O        -4.3736571206       -5.7886343505        9.5359039757
  H        -4.6878425956       -5.2341855049       10.2660241448
  H        -3.5697263360       -6.3374858208        9.8489054083
  O        -4.9846728558      -10.4059390747       16.2218008206
  H        -5.6218794513      -10.0098402183       16.8326584291
  H        -4.4839285467       -9.6837211226       15.7519912694
  O        -4.9957251671       -3.8692340514       11.3966186617
  H        -4.2650479594       -3.6242978210       12.0027692715
  H        -5.7897468115       -3.6196371063       11.9509291309
  O        -6.4415295997       -2.0082151333       17.0657548890
  H        -6.9923490554       -2.7215629408       16.5460315633
  H        -5.4710161265       -2.2693326322       17.0715681449
  O         0.8535359093       -9.2522137951        6.1516836127
  H         1.5612941818       -8.6159589495        6.4500723034
  H         1.3009317608      -10.1494484183        6.2710391983
  O        -3.5431523998        0.1713019410        9.3174041002
  H        -4.2157925764        0.8125504402        9.0619000942
  H        -2.7059903245        0.6675728188        9.3886949519
  O         7.4968547007       -5.3476035214        6.7864601976
  H         6.5470322420       -5.5398133669        6.7213511154
  H         7.8155071875       -5.2763903673        7.7317555233
  O         6.2684084385        3.5851456147        5.5043513449
  H         5.7795075410        4.1147526085        4.9031327262
  H         7.0854240795        4.0652502242        5.8259204324
  O         2.6821442990       -4.7613109261       12.4810325993
  H         2.1468719249       -5.1764821079       13.2001661250
  H         2.0490990517       -4.4283864946       11.7849157920
  O         4.8897593876       -1.9730039457        7.2450082294
  H         5.3356301847       -2.0442713826        6.3288002433
  H         5.2395721326       -2.8563389023        7.7710600468
  O        -0.0261967280       -3.0638429634       16.7221659288
  H         0.7504181100       -2.9618954349       16.0229921753
  H         0.1789434871       -3.9419861948       17.0964316346
  O         5.1813771307       -6.9808174463        9.5594267801
  H         6.1632070656       -7.1111633607        9.7256449343
  H         4.9256006723       -7.7633600477        8.9279014614
  O        -7.3858208022       -2.9533655268        0.4421053246
  H        -8.0620250105       -3.6535869473        0.2725561826
  H        -7.8558414417       -2.1515291759        0.0803942308
  O         2.2144087108        5.3100014866       16.5912497283
  H         2.0628854451        6.1150681082       17.2310285196
  H         1.8629888417        4.5387089026       17.0879958942
  O         1.8284286547        0.5781595957       19.0225505550
  H         1.2234960810       -0.1783023538       19.2375623055
  H         2.4697207492        0.6910500772       19.8367151303
  O        -1.8517422134        5.3428329167       10.4093022885
  H        -0.9260393469        5.6033659416       10.5784293388
  H        -1.9592641290        4.5259141104       10.9560880096
  O         4.8256528760        2.9901584244        7.8103707724
  H         4.6570443960        1.9931043052        7.9649500694
  H         5.3005951940        3.0752197706        6.9578549266
  O        10.3790613028        3.6864970658        7.6919281033
  H        10.2185914058        4.3508263483        8.3377728381
  H        11.2616278459        3.8508643857        7.4016764712
  O         3.9548663885        0.3231674721        8.3635456332
  H         4.3995178978       -0.5069072502        8.0859299382
  H         3.8505684853        0.3908154803        9.3519515698
  O         5.3451875165        0.1080321521       12.8298844942
  H         5.3560222397        0.1300979748       13.8419031336
  H         6.2330135987       -0.2851071258       12.6414409001
  O        -1.7031506443        3.1559217812       12.0756312080
  H        -0.9961646867        3.7009036418       12.4396539488
  H        -2.3117695732        2.7368679412       12.7568545873
  O        -9.0341803645        0.7098436639       10.9379566980
  H        -8.2463669278        0.7660632789       11.5702154301
  H        -9.5786469660        1.4178631764       11.3473979255
  O         8.4525323241       -2.9932707520        5.2207831834
  H         8.1874604686       -3.7547568339        5.7983572546
  H         8.9138097393       -2.4122784569        5.8978662675
  O        -0.6496610084       -2.7898836266       10.6675435817
  H        -0.4071696469       -1.8058573811       10.6042956794
  H        -1.0753987637       -3.0719637441        9.7684782411
  O        -4.5315350496       -2.8861306078        8.8991170774
  H        -4.4106338035       -1.9478338126        9.0884072602
  H        -4.3343739953       -3.2854349435        9.8024520110
  O        -0.5617309726        2.7066532681       16.3612359464
  H        -0.0567088182        2.9960953086       17.1632424932
  H        -1.1770292947        2.0369157752       16.8124924807
  O         0.9963683909        5.8636098343        9.9418030260
  H         1.4605549479        6.7331937810       10.1172444075
  H         0.9738031061        5.3593116227       10.7766409012
  O        -2.3304248259       -3.3962128227       15.4434938353
  H        -1.5290591214       -3.2052188361       16.0561738681
  H        -3.0964173402       -3.3007805596       16.0521870949
  O        -2.8368641983       -2.8419632399       12.9256189856
  H        -1.9682207530       -2.9671755754       12.2912291807
  H        -2.4908210281       -3.1373868116       13.7987221288
  O        -7.8664846585       -6.5301080737       12.1936769614
  H        -8.5808344986       -5.7967206636       12.3080289148
  H        -7.6256062748       -6.5410091079       11.1959494080
  O         2.2129884469        2.4696331895       12.8691108005
  H         1.7737817652        2.0950375291       13.6542133548
  H         3.0174657661        2.9986062261       13.1172519775
  O         2.1491017843       -1.6010193442       12.4898975300
  H         2.5000126493       -0.6940679973       12.2934031053
  H         2.0511809602       -2.0001017958       11.6027349451
  O         6.7789738879       -9.7611296624       -0.1362370716
  H         7.4585184985       -9.7243454136        0.5481164245
  H         6.4112867145      -10.6836695566        0.1242784319
  O        -4.1433479360       -6.6314838945        0.1782525404
  H        -4.7116760329       -5.8844292940        0.3911250269
  H        -3.2386819409       -6.2394680486        0.3288392349
  O        -0.2015557838       -6.0970480686        7.6418074288
  H         0.1917633585       -6.4312068543        8.5449475568
  H        -0.7346485402       -5.3282432667        7.9008921769
  N         5.2262389114       -3.9417317180        9.0327019546
  H         4.3207045069       -3.9017611271        9.5751398472
  H         5.3385201984       -4.9473594086        8.8535185028
  H         5.9631482590       -3.5962390216        9.6554837686
