     193
 CELL 12.4294 12.4294 12.4294 90.0 90.0 90.0 i =    83720, time =    41860.000, E =     -1096.5687500850
  O         6.2607060007       -0.9628627336       40.8121072927
  H         5.5858313196       -1.0111126087       40.0410804715
  H         5.6638339061       -0.7849638926       41.5900541576
  O         6.9664112916       -7.3300746593       38.5742749285
  H         7.6228008071       -7.9006431480       38.9640629076
  H         7.2943799797       -6.4762141011       38.9146446265
  O        10.6679162768       -3.6623816819       41.0563496245
  H        11.4614752990       -3.6789603497       40.5198629268
  H        10.5207224707       -4.5946839778       41.1089086539
  O         8.6291649184        0.3206762169       40.0795202927
  H         7.7093639929        0.0085766549       40.3059733602
  H         8.5188358576        1.2229979437       39.6665136743
  O        -3.3079251950       -5.7305129522       36.7012680508
  H        -3.1919257117       -4.8350944147       37.2225508139
  H        -2.8134155875       -5.5117608590       35.8963287921
  O        15.8984693541       -3.1572188452       48.4980185586
  H        16.2696231594       -2.5505019405       47.8567126346
  H        15.7130330005       -3.9759760717       48.0307497602
  O         7.1079201799       -1.4310534652       31.4388314164
  H         7.6628876760       -1.4627162734       32.2745261055
  H         7.6697297570       -1.7178167566       30.6848179959
  O        14.2043912745        3.5208251083       41.7991512095
  H        13.6862866976        4.2571690820       42.2685251561
  H        14.3782850000        3.8552896970       40.8537579992
  O         4.3906081720       -7.1564781789       32.5118880566
  H         4.5646397681       -6.7071167723       31.6385284377
  H         3.8896775241       -8.0179144961       32.3718667363
  O        10.8131470733       -2.6778386822       31.7356994609
  H        10.9408074983       -1.9297081916       31.0862564952
  H        10.3130919497       -3.4017007605       31.2324764698
  O         9.9209761287       -4.8715232383       33.9693021669
  H        10.6869951676       -5.3739883090       33.5578504520
  H         9.1428634556       -5.3951430599       33.5366152754
  O         1.5268975948        6.6926988925       35.6227342878
  H         2.3784942700        6.2610015811       35.4438877404
  H         0.9946582298        6.6083963211       34.7780576327
  O        -1.2797628131        0.1715293104       44.5025637275
  H        -1.0790629396        0.8606856659       43.8277240386
  H        -0.5082620790        0.1808219808       45.0798814693
  O         7.5847708934       -2.6083813557       35.7609183466
  H         7.9587827174       -2.3963680952       34.8687176499
  H         7.0819318193       -1.8129301436       35.9773658654
  O         7.3247103469        1.9746906845       36.5709287919
  H         6.4726840368        2.5588309056       36.4832751017
  H         7.7999242555        2.2825300543       35.7893418977
  O        16.8025029118       -1.0503691970       39.0648882115
  H        16.3271932384       -0.3216315706       39.5033537905
  H        16.1252293771       -1.7432311367       38.7438393002
  O        15.4710386299       -4.4785172222       33.1741480367
  H        14.6241833432       -3.9949883914       33.0501240508
  H        15.2749660631       -5.3977854135       32.8704858788
  O         9.2415589409        3.3003786633       42.0528484570
  H         8.4537365794        3.0226711215       41.4526551255
  H         9.0089112527        2.9416649953       42.9176405183
  O         5.9899772008       -0.6626087191       36.5869716645
  H         6.5105913354        0.1658324302       36.7426577706
  H         5.5824549366       -0.8997273635       37.4538734856
  O         9.7698622855       -6.2290594042       41.5148980839
  H         9.3036936617       -5.8099866344       42.3192898141
  H         9.7102527578       -7.2096714080       41.5965996619
  O        15.2290234341        4.5593240273       26.8245901092
  H        15.3078345264        3.8155334052       26.2130784051
  H        14.6305055907        5.1067564801       26.2918524183
  O         5.0366628434        4.9923778115       40.6160008610
  H         5.8018223863        5.0628829463       39.9758872333
  H         4.2198779407        5.1052299112       40.0407763465
  O        13.6359232873        0.1101183098       41.1935969042
  H        12.8894108096        0.6705530304       41.5132479047
  H        13.6266434101       -0.6676906554       41.8117929061
  O         6.4526120100       -9.7462273565       29.2518137311
  H         5.9344506092       -8.9896074142       28.8308347948
  H         5.8796558229       -9.8245432900       30.0647168673
  O         3.2307430025        1.8435408824       37.6573122016
  H         3.9230935872        2.4082789420       37.2531676012
  H         3.4344411455        1.6998678573       38.6097990982
  O        13.1467645186       -4.1233541107       27.0327508240
  H        13.8184086793       -4.2066184238       27.7841739992
  H        13.6222102326       -3.4144486694       26.4631119820
  O        12.6776054429       -9.3237034757       45.1344337184
  H        12.6254673087       -9.9316437525       44.3942624406
  H        12.0899429334       -9.6252446361       45.9117537286
  O        13.1369730619       -2.7213872050       32.7740133985
  H        12.2553301834       -2.9304649220       32.3245762845
  H        12.9525032472       -2.1201112559       33.5390956102
  O         6.6197640841       -5.1741114689       35.5560400039
  H         7.4228515297       -5.5203510309       36.0526200798
  H         6.8522569111       -4.2695520340       35.4716838046
  O         3.5885401931      -10.8056949885       40.3686399440
  H         2.8449402031      -11.0450379190       40.9193041242
  H         4.4060380872      -10.7719102932       40.9360261766
  O         2.0953579276       -2.2937741650       38.2040407273
  H         1.5443371524       -1.5164021966       38.1323379628
  H         2.4661528633       -2.4811235556       37.3023485395
  O         2.1857953312       -1.7875674489       42.9867138734
  H         2.8748535618       -1.1571077754       43.1163232646
  H         1.7659994438       -1.8752369156       43.8775078800
  O        12.5887257713       -6.3268318737       33.0107441081
  H        12.7378570304       -6.0209421007       32.0855464559
  H        12.8279276536       -7.2703414220       32.8711787031
  O         4.6555708606       -0.4490157488       30.6795438778
  H         5.5637480866       -0.6191237065       31.0661879156
  H         4.5106317384        0.4310805098       30.9268274279
  O        17.0323593705       -1.2436529804       34.2453227677
  H        17.4606511675       -1.8053625951       33.5587049497
  H        17.7150351777       -1.1360642311       34.9191202856
  O        16.2961433298        2.3193309729       31.0060725620
  H        15.5538731898        2.7003866838       30.5261143751
  H        15.9418773483        2.3849527615       31.9876941837
  O        10.7912206626       -7.9511671423       37.3536646659
  H        11.4806538597       -7.4103287195       37.7534932936
  H        10.1671888707       -7.2709983514       37.0248924972
  O        12.6093023685       -0.9229774840       34.8727655536
  H        13.4896907122       -0.5373140191       34.9952578161
  H        12.4714375470       -1.7689863463       35.5985072157
  O        12.9214290676       -6.3804536129       42.6190835672
  H        13.5350150041       -5.7053880456       42.2563690258
  H        12.0070104888       -6.1550907527       42.2216398358
  O        16.7072132794       -6.7145266369       35.3683492222
  H        17.4321640428       -5.9774946990       35.4192076134
  H        16.9584425584       -7.0748460641       34.4497078436
  O        -2.2302738952       -1.0588294328       26.0000268299
  H        -2.8492669356       -0.5233727167       26.5934943609
  H        -1.3414547497       -0.6769079679       26.1040823443
  O        11.8534779993        2.0664653657       42.4693212673
  H        12.6563664157        2.6204574017       42.2488506589
  H        11.0319078250        2.5424508461       42.2932045859
  O        10.2430808830        0.2397878576       47.7186065833
  H        11.1412489756        0.0189437162       47.3804836580
  H        10.2129685735       -0.0126956627       48.6790239392
  O         8.1673746153        3.6575389669       33.9935700782
  H         7.8390039394        3.0704297353       33.3180368249
  H         9.0828724643        3.3294584770       34.2216017603
  O        15.3264139788        2.6584326017       33.6720961019
  H        15.2584760666        1.8066299902       34.2680183977
  H        14.3958841634        2.9175680221       33.3703296325
  O        21.0962373260       -1.6089196357       33.5308115269
  H        21.5309545357       -0.9093043740       34.1198244715
  H        21.8312420631       -1.9499770825       32.9540422687
  O        13.0921116033        2.2786452743       37.5728644346
  H        13.0212140716        3.2233169474       37.6950616546
  H        13.9869124025        2.1683921075       37.1356682173
  O        14.6496962076       -4.3655263293       41.7891439853
  H        15.5980349263       -4.6037479350       41.7508646500
  H        14.7006712756       -3.4675715078       42.2208813449
  O         5.2445228824        3.6658431061       36.8354050572
  H         5.8183414546        4.1170883079       37.5111917192
  H         4.8327068699        4.3810186125       36.2297227519
  O         0.3717767994       -0.2717138413       38.6973196422
  H         0.3452893493        0.6626866491       38.4805008792
  H         0.6005873899       -0.1698738424       39.6605113793
  O        18.1605865916       -3.6461115155       33.0871002227
  H        17.2296876354       -3.9473023982       32.9021783638
  H        18.5836146769       -3.1972402578       32.3357342244
  O         9.3339673107       -3.3704725113       37.8560243355
  H         8.7864165861       -2.9456750764       37.1079672073
  H         9.7173426214       -2.6109774298       38.3600616125
  O         2.5397587850        0.1457694973       35.5110376938
  H         2.9060157261        0.5305495765       36.3407627464
  H         3.2374158388       -0.4372853697       35.0889782538
  O         8.3575544017        1.5253700636       44.0818710351
  H         9.0026158354        0.9838077918       44.5224843571
  H         7.8716208610        0.9270724435       43.4942586886
  O        10.7265160008        2.8256070193       34.6729282381
  H        10.7533406372        1.8870107120       35.0487673808
  H        10.9541357489        3.3267950992       35.5127740259
  O         8.6080733583       -4.5466565948       43.3370881081
  H         7.8853799685       -4.1973997624       42.7632378285
  H         8.1523448330       -5.0484034471       44.0878089593
  O         4.6992838186       -5.6512550964       42.5241595466
  H         5.2582678553       -4.8674726124       42.5267403328
  H         5.0322266093       -6.1344022697       41.7521600539
  O         0.5172648190       -6.5105290511       38.0524864062
  H         0.4000043664       -5.7099217627       38.6500492595
  H         0.7715833302       -6.2032083205       37.1552505370
  O         8.7595696613        2.9086714872       38.6855656810
  H         8.3424995370        2.4487547759       37.9077660333
  H         9.6267894710        3.2403329002       38.4191287490
  O         9.0577025901       -1.7968977645       42.0811780388
  H         9.4163077237       -2.4920350889       41.5028804477
  H         8.9370939205       -0.9652095381       41.5074142979
  O        20.4377368323       -4.9145584341       27.4632410254
  H        20.9691749824       -4.3067333750       26.8737569021
  H        21.0305101836       -5.4621685035       28.0360297529
  O         6.3596736931       -3.7162250556       29.1229283148
  H         7.0097314544       -4.0296953193       28.4291004397
  H         6.3810143961       -2.7539087825       28.9926946148
  O         7.7221338117       -6.0469359162       32.9960668435
  H         7.5976665294       -6.9918043474       33.2017869857
  H         7.0970321443       -5.4894398619       33.4825868343
  N        12.0803888224       -3.0311344276       36.3829948197
  H        12.8486661844       -3.7346974932       36.3515169255
  H        11.8839706856       -2.9184374795       37.3408306220
  H        11.2093903845       -3.4373963062       35.8747759285
