     193
 CELL 12.4294 12.4294 12.4294 90.0 90.0 90.0 i =    69320, time =    34660.000, E =     -1096.5131481577
  O         3.3638706803       -2.1427406260       35.3478469256
  H         3.6670178252       -1.6799752578       34.5410715413
  H         2.7501980374       -1.5984856770       35.8784050577
  O         4.5657866804       -9.9312206152       30.2148340045
  H         5.3963895275      -10.3261042062       30.5324323718
  H         4.5675636811       -8.9732964202       30.5897769875
  O         8.5497085249       -4.9086524826       33.2604324760
  H         9.4571569648       -5.0834157245       32.9115600917
  H         7.9225065669       -5.6629197179       32.8825262951
  O         4.7219425776       -0.9270551401       33.2478571026
  H         5.1320149706       -0.1012925490       33.6900711137
  H         5.5102917380       -1.4222181725       32.9442689126
  O        -6.2116311451       -6.5619390531       28.2431831226
  H        -6.4766019101       -5.7259349202       28.7641107002
  H        -5.6309401195       -6.2986652725       27.4638648697
  O        11.4521880263       -5.1538582538       39.3111517176
  H        11.3361656930       -5.6261988368       38.4493513080
  H        11.6295510990       -5.7934179027       40.0444403523
  O         5.7447986336       -2.6184192637       23.7252443508
  H         4.7684353144       -2.5142042577       23.4114230697
  H         6.4310089226       -1.9681474185       23.2893022874
  O        11.6287733802        3.5573490868       34.7104358444
  H        10.7928374985        3.2456015437       35.0381190398
  H        11.7018737121        3.1263583293       33.7898333813
  O         0.1097643186       -6.5201629455       21.7296551354
  H         1.0178948288       -6.5517004591       22.1205892402
  H        -0.1909876715       -7.4736173979       21.9913995172
  O         5.8434567114       -3.9850717250       26.0418431071
  H         5.8680169374       -3.3792537691       25.2331220402
  H         6.3209596336       -4.7327260701       25.6105233909
  O         7.2268061813       -6.6233736428       25.3728715803
  H         8.1335908045       -6.9614681855       25.7318673906
  H         6.7131738192       -7.4637142123       25.2990224524
  O        -1.2159770502        4.7455812529       28.1921990269
  H        -0.4780042099        4.1016228033       27.9660507353
  H        -1.8236939110        4.5287395761       27.4591123108
  O        -4.4326908386       -0.7054071966       35.4322141942
  H        -4.0326058046        0.1984076187       35.4034644403
  H        -3.8150115265       -1.1580239652       36.1043881588
  O         3.5012718239       -4.8985388857       27.6446234147
  H         4.1774501514       -4.5425106399       26.9824024272
  H         3.3363753846       -4.2896502234       28.3610082991
  O         3.2903526848       -0.6780098798       26.7055268848
  H         2.9017315288        0.0762533064       27.1678868671
  H         4.1421308133       -0.4595735452       26.2681345692
  O        14.5575117158       -1.5033648763       31.8762322664
  H        15.0085283090       -1.0131563055       32.6084840356
  H        14.0293435715       -2.1248271492       32.4492795449
  O        10.9739419083       -6.3197983319       24.3901274472
  H        11.6998766192       -6.3318457471       23.7424404544
  H        10.2879913866       -5.6791931592       24.0175448917
  O         7.0670283598        3.1737262657       33.5413071436
  H         7.1718381114        2.5530799914       32.7841230603
  H         6.2486822474        2.8258671613       34.0053752151
  O         3.7869076483       -2.3641840018       28.8031004609
  H         3.5304507015       -1.8587469538       27.9934238965
  H         3.4258433214       -1.9329315162       29.5597810990
  O         6.2745367510       -6.8562986216       32.5564333490
  H         5.8068438801       -6.5252372028       33.3643902238
  H         6.6309546399       -7.7069843812       32.8636897296
  O        12.3034203832        2.6763003214       19.8209832603
  H        12.1367956131        1.7887121723       19.5223626750
  H        11.7260257486        3.2208333132       19.2278568496
  O         2.9305876028        2.9687003854       32.3685633845
  H         3.2357531809        2.4510237923       31.5618749514
  H         1.9950238132        3.2228503453       32.1306671604
  O        10.9842524586        0.1074778651       33.0683974127
  H        10.5068071152        0.7446817569       33.5712883713
  H        11.3387908494       -0.5260346942       33.7225386126
  O         3.5514211988       -9.5083260399       23.9009570465
  H         3.5018062161       -8.5174750050       23.5953092413
  H         2.6024528315       -9.8014775549       23.8890553761
  O         0.9491542823       -0.4977112868       29.7319170170
  H         1.4006642240        0.3563677126       29.5243398517
  H         1.3122082322       -0.8021747877       30.6558873195
  O        10.9100562814       -5.5662671171       19.6431014412
  H        11.7230805166       -5.8673483717       20.1520257826
  H        11.3086724420       -4.9057946146       19.0311613268
  O         8.1062018601      -10.3650324150       37.8870188751
  H         7.1588848962       -9.9821411482       37.7261185378
  H         8.0082034692      -11.1588036219       38.5302414337
  O         9.5689853667       -2.2961455167       24.3223675190
  H         9.4681337313       -3.2525674531       24.0407010211
  H         9.3732024391       -2.1925646843       25.3079225452
  O         3.0014360941       -7.4900366255       26.7090355242
  H         3.6274314410       -8.1548987596       27.0884861121
  H         3.0384197969       -6.7282038156       27.2766729428
  O         2.2168178850      -11.8573302659       33.8855760680
  H         1.4219321019      -11.4658597997       34.3727630609
  H         2.4301580391      -11.1825232438       33.1971270566
  O        -0.3373271988       -3.6119721941       30.0809785914
  H        -0.0927950671       -2.9233345706       30.6833001260
  H        -0.8447443930       -3.0727365410       29.4573639439
  O        -0.4671271906       -1.2095739871       35.3817639648
  H         0.1748997521       -0.7216934850       36.0020970672
  H        -1.1680553277       -1.6133747536       35.9061236278
  O         9.6339569633       -7.9636895293       25.9257410962
  H        10.1830164165       -7.5789627094       25.1961372106
  H         9.1839563741       -8.7423105713       25.6089370963
  O         1.8912419859       -0.4604590163       24.4826257653
  H         2.3066544014       -0.4233240526       25.3873047882
  H         1.7271385529        0.4317447021       24.1501491210
  O        13.6198419824       -3.7763022845       25.9349658499
  H        12.8031681425       -4.3861344228       26.2642204188
  H        14.4043405148       -4.0728539743       26.4393766258
  O        13.1401199830        2.0897152300       24.0741165596
  H        12.6093386102        2.5369786824       23.3404717868
  H        12.4465745312        1.7979120475       24.7306964534
  O         7.7937041061       -8.4002382130       29.2744279323
  H         8.5765442027       -7.9705056333       29.7304646933
  H         7.1744568221       -7.6430856630       29.0752196493
  O         9.5460870095       -2.1559327067       27.2754739909
  H        10.4793838434       -2.0003100361       27.2498416383
  H         9.3387878057       -2.9229221947       27.9324539698
  O         8.4292552036       -4.8784157527       36.0141597510
  H         8.2181630202       -4.8413311047       35.0293846700
  H         7.7261013950       -5.3327737662       36.5349789426
  O        13.4281564816       -9.0747342777       27.3739449425
  H        13.9373131832       -8.2722299918       27.0994361085
  H        12.9899878088       -9.5587634166       26.6792475031
  O        -4.4123667244       -0.4981749086       17.6222143618
  H        -4.8165688327       -1.1574075281       18.3110587730
  H        -3.4419794465       -0.7894608112       17.7063304998
  O         9.2603307895        2.3112714112       35.3385411932
  H         8.8824312555        2.1748223081       36.2693097928
  H         8.5294188928        2.7078848827       34.7534524206
  O         7.7020830024       -0.0463621603       39.8215006117
  H         8.2792460366       -0.8312576178       39.8262502878
  H         7.3666730145        0.0203549294       40.7120979054
  O         5.8014969933        3.2873048742       25.3058278349
  H         4.9565819000        3.0672593239       24.8360752719
  H         5.4305433002        3.2254232726       26.2307470916
  O        11.7170487325        1.0947488535       26.1826266939
  H        12.2101341536        0.3444159439       26.5745187308
  H        10.9530485603        1.1726904902       26.8075267540
  O        18.0574720304       -0.3840464241       25.5844829260
  H        18.8412677517       -0.2872771476       26.2872108881
  H        18.3163358065       -1.1265207419       25.0424880075
  O        10.1814465813        1.3818905973       28.5203078140
  H         9.8977834765        2.2699651616       28.9088249573
  H        10.1034780417        0.8074690020       29.2704642226
  O        12.8169065507       -3.0154819966       33.5634157653
  H        13.0968052330       -3.9218964341       33.9050995471
  H        12.5873093278       -2.4052064904       34.4177247854
  O         2.4239157912        1.5964180852       28.9914378365
  H         3.2589156609        2.0189414680       29.2750825690
  H         2.0819225521        2.1951557759       28.2966735975
  O        -1.7114852083       -0.7554826506       30.4338827449
  H        -0.8174224119       -0.4944477702       30.1225223021
  H        -1.7180793200       -0.3956892652       31.3645360972
  O        14.3008115125       -4.8033575838       23.4207505057
  H        13.8771346904       -4.4274442518       24.2740671343
  H        14.9918527461       -4.0924278426       23.3143745270
  O         6.0720534459       -4.3408584233       29.6204178731
  H         5.6966113074       -3.6448028351       29.0058379849
  H         5.4447354861       -4.1967067873       30.3282953273
  O         0.0491332903       -1.6292894848       27.2963336898
  H         0.5802748147       -1.3986335636       28.0982633094
  H         0.6243368743       -2.3196631501       26.8398868316
  O         5.5845226086        1.2250351003       35.1188187879
  H         5.9601932445        0.7445063112       35.9013972468
  H         4.6679994543        1.4264897992       35.3565195578
  O         4.8760884299        3.7178933076       27.8127063029
  H         5.2700927116        4.6539331896       27.9286710889
  H         5.0187775500        3.1067051908       28.5705514439
  O         5.4499296925       -5.1690907434       34.9466385332
  H         5.7145283643       -4.2198980885       35.1475653201
  H         4.9656313766       -5.4723025556       35.7807044210
  O         3.1287680946       -5.8207234259       33.4840069050
  H         2.4163982728       -5.1118531975       33.4545454693
  H         3.8447098959       -5.4008322785       34.0571908775
  O        -2.0224687070       -8.2542058843       30.7235741951
  H        -2.2605406352       -7.4886111248       31.2973318411
  H        -1.6104271273       -7.9196833376       29.9059577245
  O         7.2830153534        2.0771756955       31.0375066680
  H         7.7163461499        1.2677309883       30.7016088138
  H         7.4129272413        2.8435960426       30.4978516464
  O         7.2934703865       -2.3106559741       32.6646618604
  H         7.7506728893       -3.2257498398       32.7590491656
  H         7.5989594084       -1.6786873915       33.3742941561
  O        16.7445533516       -7.4988825346       18.3986856204
  H        15.9763789080       -7.4532146433       19.0056682550
  H        17.4852836331       -7.1306616572       18.8679222346
  O         4.0600567744       -3.8944325491       19.0344119502
  H         3.8593436184       -3.2129207233       19.6864418239
  H         3.8341907671       -4.7434397208       19.5177972716
  O         3.8165394293       -6.5942316340       24.2262265674
  H         3.7105105805       -6.8365701976       25.1577085769
  H         2.9577281690       -6.1061336833       23.9423071430
  N         9.0725989816       -4.4991241511       28.7628725566
  H         8.8206136174       -4.8890552080       27.8260655295
  H         9.9954639715       -4.8251061856       29.0040056163
  H         8.3849284574       -4.7267012314       29.5000314413
