     193
 CELL 12.4294 12.4294 12.4294 90.0 90.0 90.0 i =    35320, time =    17660.000, E =     -1096.5387393775
  O        -2.9376089847        0.2485241425       15.7457234942
  H        -2.4900916746       -0.3060104586       15.0281718354
  H        -3.6553195194        0.7259409732       15.2894517100
  O         0.1507365100       -7.9731086068       11.4734670407
  H         0.7452499598       -8.7410660951       11.4681876042
  H         0.2266398366       -7.5529936235       12.3368429409
  O         0.4489232047       -6.5226523987       13.5681966914
  H         1.0458348047       -6.9746993188       14.1801223705
  H        -0.5029270601       -6.3606730030       14.0930325345
  O        -1.5400391424       -0.4775769101       13.6216693969
  H        -0.6297794224       -0.0614817919       13.4954088532
  H        -1.6509751545       -1.0731738928       12.8443686689
  O       -10.7384353790       -4.0529006251        9.3484058331
  H       -11.6369480444       -3.8191245695        9.6642202641
  H       -10.6838402974       -3.7804584035        8.4184573374
  O         4.4548770578       -5.5339329452       18.1796730122
  H         4.1756099817       -5.0138080918       17.3504863560
  H         3.7559027920       -6.0336167460       18.5690207852
  O        -3.3853591084       -1.0247754898        5.5942488112
  H        -3.5776077726       -0.4589327686        6.3747689712
  H        -3.5708564216       -0.3541074199        4.8343218143
  O         4.4325294239        4.4694657191       14.8253425334
  H         3.4937009802        4.6198479139       15.0742161361
  H         4.4277922706        3.9924763008       13.9549030886
  O        -3.5563713273       -8.1270162405        2.5734520566
  H        -2.8478146511       -8.7575468092        2.8295051253
  H        -4.1949145927       -8.0374084743        3.3671590167
  O        -0.5856422351       -1.5773333269        5.4985725196
  H        -1.5750034434       -1.5701023550        5.4053003227
  H        -0.3157941141       -1.8656657154        4.5974776464
  O         0.9063460478       -5.4230031106        5.0449092711
  H         1.4114044887       -4.7793667089        5.5367832175
  H         0.2786266313       -5.7891947703        5.7041626826
  O       -10.0120895390        4.8630363269        6.9431166867
  H        -9.2760328079        4.2011740685        7.1731699361
  H       -10.2474351710        5.1540419349        7.8964306400
  O       -10.8163310791       -1.5555353654       13.1712585038
  H       -10.6796644782       -0.9962955115       13.9211707225
  H        -9.9993743106       -1.4577876815       12.6055787977
  O        -2.0246474633       -3.8273068108        7.4460278367
  H        -1.5788076889       -3.2371637503        6.7675729921
  H        -2.8725208440       -3.3252638016        7.6997122327
  O        -1.4274757166        1.4868480886        8.6516924706
  H        -1.4356990143        2.1205267278        9.4809062044
  H        -1.6156090805        1.9760997890        7.8108894932
  O         8.0936445715       -0.5960360509       11.0150453736
  H         8.4439439304       -0.4645859826       10.0623510862
  H         8.5558703141       -1.3920804678       11.4240109150
  O         4.3109073041       -3.9392601947        3.1065284228
  H         5.1270865583       -4.5388911738        2.9720851080
  H         3.7776985478       -4.3203223741        2.4029694360
  O         0.4763927080        1.3148414342       13.7022629564
  H         1.1329065411        1.1057656035       14.4893118631
  H        -0.0936744606        2.0459876601       14.1360241375
  O        -0.1588707108       -0.3160088631       10.0564270482
  H        -0.3724253957        0.4858129269        9.4777190820
  H         0.5047324729        0.0010661722       10.6578832089
  O        -2.0708158690       -6.1363220750       14.2033562358
  H        -2.4819784544       -5.2486500401       14.4340823252
  H        -2.5997249913       -6.9178750553       14.5578764945
  O         4.0068735400        3.7762972968       -0.0910587635
  H         4.6345009423        3.4667667101       -0.8040605330
  H         3.9457301792        4.7716480986       -0.2239120733
  O        -3.9783371159        1.5738716723       12.6868205381
  H        -4.3240378535        0.7914988580       12.0606758221
  H        -3.1744349795        1.1907004456       13.0754774771
  O         4.7962325575       -0.0961967219       14.2849648205
  H         5.5030506501        0.4908012041       14.6460112931
  H         4.8650384371       -0.8407253679       14.9318252682
  O        -4.3434492034       -7.9617130693        5.2036063736
  H        -4.5731034694       -7.0278947256        5.5055841806
  H        -3.5915882649       -8.4997158557        5.6654689094
  O        -4.9798021818        2.6931825079        8.2319256826
  H        -5.6924669915        2.9078718297        7.5622173844
  H        -5.5504987728        2.8730298255        9.0427840385
  O         5.9651336790       -5.6763835726        1.6983273250
  H         5.5877367461       -6.4986550994        1.9933488020
  H         5.6457104662       -5.6041476554        0.7441508620
  O         2.2660863719      -12.2498696726       15.2744755943
  H         2.1412483341      -12.2689414215       16.2590906893
  H         3.2008285416      -12.0313863801       15.0366703596
  O         1.9451157849       -3.3082108075        6.5203601679
  H         1.2177611196       -2.7057242460        6.4124843885
  H         2.7525159656       -2.7338219874        6.4454105802
  O        -4.8722707211       -5.9057260233        8.6636563059
  H        -4.7311581821       -5.2964488065        9.4553600594
  H        -4.1418615157       -6.5130110520        8.8057820965
  O        -5.6020924144      -10.7624832691       15.0910749643
  H        -5.9513366347      -10.1305338030       15.7820658106
  H        -5.5445322687      -10.2174779153       14.3044155384
  O        -4.8882772415       -3.7397933993       10.6618153052
  H        -4.1173854297       -3.2698892895       11.1649189836
  H        -5.6814787621       -3.5527974151       11.2466476140
  O        -7.3578634147       -1.7347417969       16.4823064014
  H        -7.7248142215       -2.5641076928       16.1367272726
  H        -6.3873773140       -2.0150904491       16.5607778953
  O         0.6524614915       -9.0862226394        5.5018817722
  H         1.2477230653       -8.4369643130        6.0072631780
  H         0.9203561227      -10.0297713410        5.6090222276
  O        -3.8856643897        0.2441286603        8.2752309388
  H        -4.5619286343        1.0054259034        8.3064416504
  H        -3.0513488545        0.5547109605        8.6958447997
  O         6.9568757422       -5.4677781336        5.8223406297
  H         5.9645913376       -5.5742395882        5.7302990679
  H         7.1130262887       -5.2811858235        6.7722096352
  O         5.5914146831        3.2476154029        4.4367298314
  H         5.2557423395        3.8111012116        3.7098156238
  H         6.4619472629        3.5521990695        4.7207820403
  O         2.3849423942       -4.2241470607       13.6990362896
  H         1.6199415988       -4.8403584777       13.6175454454
  H         2.0050012767       -3.3178596101       13.3631604134
  O         3.8621207382       -1.4547014057        6.5622953792
  H         4.3576928080       -1.3892886007        5.7533409729
  H         4.3774904771       -2.0500943875        7.1896011045
  O         0.2056901817       -3.0870304802       15.7964013297
  H         1.0067538823       -3.1866158411       15.2188724661
  H         0.2153086239       -3.9146580792       16.2594749508
  O         4.8554801529       -6.6439317119        8.8703728735
  H         5.8024113068       -6.5640844464        8.9639719114
  H         4.6523217377       -7.2510428720        8.1632996704
  O        -7.0483259910       -3.1993919059       -0.3949858993
  H        -7.9190914406       -2.6968287614       -0.6184238033
  H        -7.1403744302       -3.2266572556        0.5828907685
  O         2.0333575090        4.9559888641       16.0105895033
  H         1.5888894695        5.7283567118       16.4647709681
  H         1.5014210558        4.2484187536       16.4762262600
  O         1.1821059554        0.6937374945       17.9306159731
  H         0.3932618110        0.0728688558       18.1015458536
  H         1.6997971304        0.7842422607       18.7584615452
  O        -2.8331689509        4.7796033388        8.7955235101
  H        -2.0572404523        5.3351087330        8.5912586259
  H        -2.5748292557        4.2847776734        9.6593771850
  O         4.5684424388        3.2618983237        6.9061381470
  H         4.2084902094        2.3254101471        7.0163507127
  H         4.6678918086        3.3659142696        5.8762525125
  O        10.3980992628        3.2910193929        6.7226708625
  H        10.1793379844        3.8841387629        7.4989229182
  H        11.1711237462        3.6589853824        6.2031658636
  O         2.9118131828        0.8777328230        7.4992773044
  H         3.2458812960       -0.0559830815        7.2551935124
  H         2.8803973804        0.9632473344        8.4913816540
  O         5.4249434918       -0.0637535367       11.6896151513
  H         5.2022029812       -0.1208304031       12.6581557789
  H         6.1692587775       -0.6894761735       11.5121661581
  O        -1.9495124561        3.0384199426       10.7666955271
  H        -1.1640657996        3.5110803785       11.3108440024
  H        -2.6333914306        2.7403326781       11.4736220917
  O        -9.2856101998        0.2967261711       10.3204148109
  H        -8.3858473531        0.1936683099       10.7397621509
  H        -9.8414243154        0.8322145518       10.9081917672
  O         7.6388963002       -3.0216972463        4.3712772877
  H         7.5125490507       -3.9135837004        4.8626080750
  H         8.0116232709       -2.4298094289        5.0773175687
  O        -0.7322522925       -2.9868314714       10.1932841048
  H        -0.5447212630       -2.0240259106        9.9614277938
  H        -1.1157175086       -3.3243925159        9.3622560538
  O        -4.1397474051       -2.6683121755        8.3263728473
  H        -3.9876574440       -1.6812812203        8.4728942387
  H        -4.5285169880       -2.9437421529        9.1915821419
  O        -1.3533575309        2.5597488134       15.4661491467
  H        -0.7253021814        2.9484083499       16.0547142635
  H        -1.5834786190        1.7275978360       15.8457990588
  O         1.1267280370        5.5711232627        9.3701601311
  H         1.5188286330        6.3885256954        9.6143409844
  H         0.6672775918        5.1505421814       10.1319668009
  O        -2.7417369256       -3.6803122598       14.7602644024
  H        -1.9264388616       -3.1720006267       15.0156148422
  H        -3.4755725287       -3.3266636768       15.3084518331
  O        -2.7020705665       -2.7251664688       12.0123872603
  H        -1.9724699036       -3.0349824434       11.4997761455
  H        -2.8051866823       -3.2038910424       12.8504421925
  O        -8.1376362247       -5.8703540946       11.5297405891
  H        -8.5964514547       -5.0197751433       11.6763869875
  H        -7.9214091899       -5.8339289369       10.4834739830
  O         1.7542164536        2.4044395706       11.6924120392
  H         1.3099914720        1.8725902318       12.3941692361
  H         2.5068224042        2.8543796205       12.1210279486
  O         3.0870067966       -2.2607289745       10.7939713209
  H         3.0012959445       -1.4040450339       10.3931855153
  H         2.6224740716       -2.9199988135       10.1698220392
  O         6.1702211112       -9.5513236028       -1.4173566188
  H         6.8536040538       -9.3634111626       -0.7724800789
  H         5.9738901403      -10.4826088124       -1.2767173812
  O        -4.4166292119       -8.1444103249       -0.1651564585
  H        -4.7527681465       -7.2210875159       -0.3241095441
  H        -4.0225326774       -8.1852765544        0.6833938483
  O        -0.6459838647       -6.2688055111        7.2184206906
  H        -0.0362033816       -6.4007000429        7.9967813659
  H        -1.1257204721       -5.4187341619        7.3385793733
  N         5.1945183533       -3.1525874196        8.2315309417
  H         5.1412309626       -2.8255208538        9.1824311582
  H         4.9682213333       -4.1322278542        8.1535755866
  H         6.2119034634       -3.0609992521        7.9289548799
