     193
 CELL 12.4294 12.4294 12.4294 90.0 90.0 90.0 i =    25720, time =    12860.000, E =     -1096.5164587097
  O        -4.2249840964        0.1621414666       10.3213165930
  H        -3.9656948618        0.0265447883        9.3640126685
  H        -4.9473349626        0.8174420476       10.2426782803
  O        -2.2060081744       -7.0851585848        5.3526280951
  H        -1.4245372566       -7.6302486966        5.5859280821
  H        -2.5887682077       -6.7483635860        6.2356836294
  O         0.0903699917       -6.1682922561        8.1509412117
  H        -0.5967480170       -6.0984982232        8.8348516394
  H        -0.1618508934       -5.6149864490        7.3638710783
  O        -3.6446587092        0.1251347647        7.6130489263
  H        -2.6884982909       -0.0312873917        7.9138567270
  H        -3.9400215538       -0.8071803388        7.4031170895
  O       -12.2116179836       -4.6261385502        5.7606412227
  H       -13.0968060207       -4.5860359370        5.4216251592
  H       -11.9950116673       -3.6572443181        5.7928933623
  O         2.0468844770       -5.6649857192       11.9569299161
  H         2.1819926273       -4.6162709993       12.0058296500
  H         2.3352290967       -6.0590496815       12.8120416770
  O        -4.5966266048       -1.7373451414       -0.0207212020
  H        -4.8509971797       -1.2208884266        0.8350803584
  H        -4.4264934415       -1.1051156788       -0.7439831780
  O         1.3286245564        1.5362693006       10.3968249417
  H         1.1951744167        1.6950550550       11.3247212920
  H         1.1037508159        2.3666525317        9.9473108238
  O        -4.9465077059       -7.6917816974       -2.9275230890
  H        -4.6676990324       -7.3103558547       -2.0850390314
  H        -5.8653384195       -7.3739695523       -3.1218404228
  O        -1.9939346987       -2.1699156121        0.4920687495
  H        -2.9564386386       -2.0424945724        0.2959289009
  H        -1.5658194065       -2.4310726944       -0.3959940169
  O        -0.7645795980       -5.9082798277       -1.3329702669
  H         0.0771808044       -5.7171353333       -0.8570736118
  H        -1.4119244978       -5.9394126698       -0.5729960275
  O       -12.1226215263        4.9435323675        2.0980736183
  H       -11.4701945231        5.5501354170        2.4550835229
  H       -12.8767382506        4.9689654650        2.6915824100
  O       -11.5590971220       -2.4822487447        9.1969309354
  H       -11.5423085550       -1.6879152472        8.6095837220
  H       -10.9639304970       -3.1735027878        8.8120576898
  O        -3.2850698332       -3.4107859606        2.8436045029
  H        -3.0598366435       -2.8012548337        2.0874190604
  H        -4.2681857723       -3.5415538256        2.9370413556
  O        -2.7676718091        0.7244344289        3.4762685760
  H        -2.8072008829        1.7063116164        3.6227360184
  H        -2.0698687608        0.6510342527        2.7914622845
  O         5.9395398571       -1.3350536208        4.9170795712
  H         6.4158498321       -1.0459879928        4.1003244241
  H         6.5412864275       -1.9032952390        5.4832237079
  O         2.3484245477       -2.9258488909       -0.6600138523
  H         3.3232224635       -2.7370858134       -0.7904741228
  H         1.9117608587       -2.7307438629       -1.5256356535
  O        -0.8862328535        1.0731064111        7.6407441107
  H         0.0029763251        0.7080999088        7.8621544751
  H        -1.2967530090        1.3543910383        8.4861945961
  O        -1.1276014512       -0.3384647994        5.2706414920
  H        -1.5400330285        0.1867309448        4.5524663325
  H        -1.2057355336        0.1128531264        6.0942400329
  O        -3.7305638585       -6.1057887806        7.5956828506
  H        -3.5721907589       -5.3484515969        8.2250963261
  H        -4.0971034975       -6.8181506790        8.2502196811
  O         1.3401203367        3.8584065445       -3.8071775657
  H         1.9578446552        3.5218578481       -4.4979807911
  H         0.8898273315        4.6779173058       -4.1516080095
  O        -5.4453981786        1.7717165514        6.4583466068
  H        -6.0287661713        1.0264383390        6.2520412372
  H        -4.7884389165        1.4532511790        7.1028336628
  O         4.1517188849        0.9595400430        8.3646573768
  H         5.0243378562        1.4017265524        8.7293992927
  H         4.3076377999        0.0274133792        8.8143603342
  O        -4.7674692000       -6.1990481118       -0.5681432017
  H        -5.5826484599       -5.8980578716       -0.0177178326
  H        -4.0513536013       -5.9295813560        0.0032497433
  O        -6.8502521332        1.4813494821        1.5351734389
  H        -7.4173825706        1.4231281868        0.7476187295
  H        -6.5876298820        2.4137744661        1.7429647931
  O         5.1490805225       -6.5281165423       -3.8618172580
  H         4.4323480455       -6.9270895598       -3.2423396386
  H         5.2202884314       -7.1544135285       -4.6840918850
  O         1.5237242804      -12.4855179820        7.9186396369
  H         1.9355499756      -12.1141468498        8.7852884487
  H         2.3033039218      -12.7111254873        7.3347387538
  O         1.1521433613       -2.0533121210        5.1450946473
  H         0.5242930233       -1.3107512592        5.1660293102
  H         1.0753520528       -2.4312109899        4.2449994292
  O        -6.8466115047       -7.0154938034        4.2173099194
  H        -6.4447392528       -6.2691920782        4.6756147963
  H        -6.3309508098       -7.3656310429        3.4251945437
  O        -5.9009922080      -10.4195207662       10.0401013593
  H        -6.7145044089      -10.3225292528       10.6053355396
  H        -5.4602035872       -9.5493918414        9.8418113544
  O        -5.6002779104       -4.9806177282        5.4747387820
  H        -4.6890205636       -5.1766190480        5.8349929707
  H        -6.2077544823       -4.5361328362        6.1207782589
  O        -8.3910985253       -1.7222142392        9.4012623479
  H        -8.4283631884       -2.1434141435        8.5338081050
  H        -7.6909460750       -2.1885668753        9.8524109514
  O        -3.0577303208       -9.1162035320        0.7057462726
  H        -2.7494628691       -8.9147692903       -0.1855715804
  H        -2.6215014419       -9.9768248637        0.8814574568
  O        -5.2762579682       -0.4813832480        2.4048982573
  H        -5.9856076022        0.1862934257        2.2184589696
  H        -4.5915812686        0.0658842252        2.8843377977
  O         5.5797041104       -5.3435663436        1.3223058305
  H         4.7602993503       -5.6844856675        1.7126819153
  H         6.0314437666       -4.8348735562        2.0790054563
  O         3.3225968841        5.0379576835       -2.1644842373
  H         2.6573667970        4.5684559168       -2.7768354264
  H         2.8541178859        5.7808720166       -1.7187744092
  O         2.3091239975       -4.5716193162        8.2232745445
  H         1.4492697337       -5.1079796142        8.1626468079
  H         2.9035966010       -5.2422377260        8.6223709159
  O         1.2272974889       -2.6062038727        2.5495389225
  H         0.5432610955       -2.5723100562        1.8452519858
  H         1.9532654381       -1.9488569293        2.2213350136
  O        -1.3931554077       -3.3712185716       10.6798862873
  H        -0.5480981652       -3.2373294847       10.1366270583
  H        -1.1592299056       -4.1893334089       11.1764670086
  O         3.0025737265       -6.6773437961        2.4968699751
  H         3.8369809578       -6.8226312084        3.0465796258
  H         3.0773821380       -7.3822671275        1.8217318520
  O        -7.1875691638       -3.8628568850       -5.2637881657
  H        -8.1370440841       -3.7878473151       -5.4797661823
  H        -7.1734155387       -4.5984677902       -4.6359820205
  O         0.0845194134        3.7048492201       11.8443600457
  H        -0.3021829307        4.3968395544       11.3085214034
  H         0.1179029943        4.0467950867       12.7736189421
  O        -1.3937415212        0.4297474406       13.5387969427
  H        -1.5468123050       -0.5148868920       13.3625203339
  H        -0.4634436927        0.5701454498       13.4132618821
  O        -5.4792897687        3.9381574402        2.5169195098
  H        -4.9280222007        4.1725301002        1.7880582537
  H        -4.8440103595        3.7201332795        3.2442031925
  O         2.8964687337        3.5631995167        0.5094964061
  H         2.2713331048        2.8070883741        0.9095357563
  H         2.3109133053        3.9755956056       -0.1914368299
  O         4.1358607561        1.5650036587       -0.9535379056
  H         3.4728198072        1.1739658269       -1.5749747303
  H         3.6677692592        2.3751338878       -0.5834940713
  O         1.4872632205        1.1780230855        1.3463918478
  H         2.1130676149        0.4586171075        1.4410293208
  H         1.4753676013        1.5180017986        2.2878698412
  O         3.4549987432       -1.8402924414        6.5269506002
  H         2.7003224164       -1.8574978596        5.9474075013
  H         4.2597625155       -1.8000431371        6.0278212404
  O        -3.7602522572        3.1976603174        4.4948527047
  H        -3.1782941170        3.9125513656        4.8591990884
  H        -4.2771027696        2.8136982708        5.2250793491
  O       -10.3729649733        1.1392573926        3.9939695230
  H       -10.3615890938        1.9524047514        4.5646498366
  H       -11.1857741633        0.6711341320        4.3845772478
  O         5.0863810668       -3.0629731464       -0.5377591746
  H         5.0968472146       -3.8737312633        0.0460244760
  H         5.8423264000       -2.5300489552       -0.1358850271
  O        -2.1979058920       -3.2273862488        5.3874173184
  H        -1.6890723414       -2.3534999591        5.3400730417
  H        -2.3411803652       -3.4455371135        4.4338662734
  O        -5.8961022596       -3.8038796520        3.1626807690
  H        -6.5729508726       -3.0923186511        3.2436923863
  H        -5.8087491910       -4.1729055805        4.0591257159
  O        -1.8612541996        1.8990914549       10.3799227891
  H        -1.0790640853        1.6186460957       10.9197826860
  H        -2.4651696861        1.2903560102       10.7786242806
  O        -2.2492501101        5.2984733039        2.6492197877
  H        -2.4932776001        5.3337229039        3.5913719517
  H        -2.7255698826        4.5173290801        2.2622291787
  O        -3.7294371379       -3.8989993588        9.2573020608
  H        -2.8463369742       -3.8021418088        9.7560719143
  H        -4.3150909090       -4.1662666826        9.9608013452
  O        -4.2786183183       -2.4735851275        7.0763898314
  H        -3.5599355802       -2.9459217089        6.5791254641
  H        -4.3345973723       -2.9073543786        7.9581919640
  O       -10.6061628587       -6.7928496606        5.0776188843
  H       -11.1054142671       -5.9938736555        5.2961467440
  H       -10.2431866044       -6.7664745932        4.1577612659
  O        -0.0048063509        3.6553490379        5.4936025471
  H         0.3409022750        3.1715751576        6.2463867956
  H         0.6698507979        4.3871329350        5.4092223125
  O         3.6121565677       -3.8734339111        3.7735849405
  H         3.6676733854       -4.4324157166        4.5614904412
  H         2.7355062565       -4.1036863934        3.4044853245
  O         2.8764638427       -9.7167751437       -5.8981609587
  H         3.5741671913       -9.1100201313       -6.0853039601
  H         3.2243664617      -10.5437014861       -5.4324798717
  O        -7.0254651296       -8.3255453708       -5.8682202382
  H        -6.6908410919       -7.9887952787       -6.7319719415
  H        -6.4655512215       -9.0682736116       -5.5924597354
  O        -2.1993009654       -5.3441183977        0.6717092749
  H        -2.2601538674       -5.9742812744        1.5054964661
  H        -2.3226912664       -4.4315682411        0.9412630366
  N         3.4478856502       -1.2334343647        2.1158339238
  H         3.9273662655       -0.3426053362        2.0498911412
  H         3.6345786299       -1.6142201717        3.0674230888
  H         3.8725242521       -1.8587914729        1.4759494638
