     193
 CELL 12.4294 12.4294 12.4294 90.0 90.0 90.0 i =    69720, time =    34860.000, E =     -1096.5491434916
  O         3.7927792842       -2.0112988968       35.3741958792
  H         3.9908416707       -1.6828765072       34.4694073610
  H         3.2189587932       -1.3538111888       35.7758112914
  O         4.6145969205       -9.4937773038       30.4815418306
  H         5.4843485858       -9.9713367157       30.8116403715
  H         4.6329909797       -8.6883912471       31.0894389829
  O         8.2582686106       -4.7760110829       32.6196231060
  H         9.1854071415       -5.0410253448       32.3710567750
  H         7.7318233182       -5.5705115960       32.6919244363
  O         4.8991273335       -0.9182705986       32.8602903917
  H         4.9156253071       -0.0134116053       33.2498724777
  H         5.8198556522       -1.1960651201       32.7381504260
  O        -5.3220117766       -6.3712941459       29.0336649419
  H        -5.7291058390       -5.6015883203       29.5103791458
  H        -5.1984706713       -6.3202449275       28.0706352422
  O        11.9531382550       -4.8604119030       39.8520765864
  H        11.0908407683       -4.4318262029       39.9147739431
  H        11.9536117809       -5.7943073825       40.2671245770
  O         6.0837399918       -2.8637709684       23.9369884845
  H         5.3004811009       -2.4075008695       23.5776429586
  H         6.8140361939       -2.4256013285       23.5106051800
  O        11.4165818229        2.6401876712       34.9103423612
  H        10.6549146528        2.0665078210       35.1692145288
  H        11.5835516434        2.3412746191       33.9777582209
  O         0.1092674214       -7.1463311460       21.9637178425
  H         0.9067991875       -7.4149079164       21.4323219275
  H        -0.3095922813       -8.0228075861       22.0642603126
  O         6.4843973988       -3.6551695593       26.4831722408
  H         6.2058689448       -3.2765244444       25.6418116914
  H         6.9731110170       -4.4407886444       26.2156948398
  O         7.7205176784       -6.3909452851       26.0536717027
  H         8.5522236126       -6.9232418607       26.0541804139
  H         7.1137088317       -7.0362545937       25.6443308040
  O        -0.6930372294        5.1661000871       28.7120054015
  H         0.1847639634        4.7044326429       28.5897324229
  H        -1.2423222611        4.7285924658       28.0003300973
  O        -4.1039836204       -1.0851422860       34.7911984107
  H        -3.9255609241       -0.1459828176       35.0223937256
  H        -3.5238108312       -1.6145873161       35.4094677387
  O         3.4774713936       -4.6652015055       26.9150882130
  H         4.3950697464       -4.6018057558       26.6786948076
  H         3.3286133343       -3.9732641841       27.6586461528
  O         3.3079951043       -0.6773412952       26.9168152214
  H         3.2907091274        0.1865675004       27.3457006728
  H         4.2219698668       -0.7124501751       26.4568741406
  O        14.0024051746       -1.6948356325       32.0608525110
  H        14.2618593872       -1.1435641919       32.8123177493
  H        13.6651943299       -2.4905311536       32.5002382810
  O        11.3312505679       -6.2601703490       24.4776506441
  H        11.9583094030       -6.5824152905       23.8087236161
  H        10.6465604600       -5.8460918897       23.9531290141
  O         7.1271822916        2.6949666905       34.0678330098
  H         7.1600748145        2.2071476975       33.1378689550
  H         6.4078764266        2.2455110636       34.5223611805
  O         3.2898636643       -2.7359885015       28.6367059743
  H         3.0869268754       -1.8432888065       28.2863288848
  H         2.9256574654       -2.7955197983       29.5326736277
  O         6.5234715350       -6.9041139336       33.6805190964
  H         6.2093023832       -6.4905296942       34.5817508086
  H         6.7401470050       -7.8960979921       33.8291533417
  O        11.8657930205        2.1365567657       19.6918320502
  H        11.4038981588        1.2447264986       19.6408156282
  H        11.2937789050        2.9307498195       19.5470491694
  O         1.8793405642        2.9188939167       33.3544186355
  H         2.6274560399        3.2322976847       32.8165470066
  H         1.1658441679        2.7220710074       32.7084458166
  O        10.8060237398       -0.3336499835       33.5495492803
  H         9.8573232853       -0.4232334791       33.7945561457
  H        11.1486738414       -0.7183661854       34.3802542552
  O         3.6292774729       -9.3130317982       23.9480177117
  H         3.2995423671       -8.4844896195       23.6738908568
  H         2.7374784824       -9.7892774880       24.2683723431
  O         0.9372456916       -0.2914928097       29.8723699278
  H         1.6464889436        0.4023319283       29.7971651051
  H         1.1182156584       -0.8416114297       30.6983257961
  O        10.9746953987       -5.3648418526       19.7514759091
  H        11.5218401912       -5.0842789540       20.5103250045
  H        11.3926480028       -4.7672547163       19.0453586277
  O         8.5504131257      -10.1467998977       38.0573481466
  H         7.5823306058       -9.8433685000       37.9023804253
  H         8.5196044129      -10.9606255839       38.6438116373
  O         9.6462063915       -2.9027985381       24.1827064910
  H         9.5711761584       -3.8554498254       23.8693765037
  H         9.5795885774       -2.8215925485       25.1968295903
  O         2.8634949153       -7.1330540816       26.8307891928
  H         3.7475369993       -7.5786610088       27.1465831996
  H         2.9114986660       -6.1787269469       27.2281777591
  O         1.9609274884      -12.2492279687       34.1434960088
  H         1.0494880049      -12.0173920729       34.4734725696
  H         2.3252536905      -11.4105177052       33.8089091572
  O        -0.6707960267       -3.5481025290       30.1635718377
  H        -1.1206571190       -2.6140804111       30.2301472092
  H        -0.4344484777       -3.8270853407       29.2271618743
  O        -0.4071262486       -1.7841866811       35.5879202402
  H         0.3013096953       -1.5212995658       36.2098693578
  H        -1.1738231873       -2.1094019394       36.0983254014
  O        10.1481715594       -7.8287750891       26.4369455010
  H        10.6355413060       -7.6814292870       25.5643898044
  H         9.8963649725       -8.8022920649       26.4917844908
  O         1.8689073407       -0.7281006386       24.4567517680
  H         2.3721532210       -0.6566058627       25.3174636029
  H         1.7200540670        0.1508019635       24.0842394732
  O        13.5740430821       -3.3116616459       25.8999969051
  H        13.0443229443       -4.0161897773       26.3567303669
  H        14.4785485313       -3.6479864888       26.1334267980
  O        13.4155398339        1.9824540505       24.2575958558
  H        12.8628411180        2.4164564631       23.5985302914
  H        12.7475322453        1.8192394127       24.9768280510
  O         8.4765448359       -8.5764170464       30.3622609844
  H         9.3131902163       -8.1985757936       30.7164768236
  H         7.9612356105       -7.8580398404       29.8498896015
  O         9.8398721103       -2.5372674568       26.8340350773
  H        10.6593812109       -2.0087882720       26.9867043649
  H         9.4466865809       -2.8247460996       27.7313815849
  O         8.7642444845       -5.4960606906       35.7006014495
  H         8.6170626673       -5.0616235747       34.7767873930
  H         7.9236292098       -5.6279307055       36.1761320901
  O        13.8261733559       -9.0206884352       27.9928856179
  H        14.2745210376       -8.3441524680       27.3404338430
  H        13.1743710039       -9.5859068885       27.4183246007
  O        -4.3196670510       -0.2707229585       17.4488869989
  H        -4.7165955584       -1.0330367719       17.8505359959
  H        -3.3663051667       -0.4221202570       17.6297906514
  O         9.1201739464        1.5637996412       35.5112840914
  H         8.8557925874        1.8558567147       36.4027865714
  H         8.5742106821        2.0749216818       34.8975426548
  O         7.9406649529       -0.0424414746       39.5535898282
  H         8.3557759620       -0.9066266226       39.3230871959
  H         7.9953482523       -0.0518779770       40.5577245888
  O         5.9926549080        3.6055451911       25.5859665948
  H         5.1292374824        3.5100837644       25.1173035769
  H         5.7492242616        3.8106499555       26.5566559938
  O        11.8226879979        1.4346651184       26.5537271428
  H        12.1137892744        0.4784572721       26.7004284808
  H        10.9634918538        1.6861457745       27.0146009469
  O        18.4020250719       -0.4573176013       25.4221014803
  H        18.9406375861       -0.1896403752       26.2343327063
  H        18.7332810425       -1.4074021319       25.2050014814
  O        10.0101154877        2.1727268849       28.6406682814
  H         9.4068899330        2.6881068736       29.2231089467
  H        10.8301058208        2.2013175478       29.0903306599
  O        12.5602727584       -3.9437007184       33.7991021386
  H        13.2671980429       -4.2349746784       34.4280243240
  H        12.2593584216       -3.0841127524       34.2407426509
  O         2.8736282874        1.3178519407       28.9634111240
  H         3.4430263150        1.9102299914       29.5255430390
  H         2.1846494192        2.0101751805       28.6521426548
  O        -1.7301994759       -0.8572908523       30.6065774963
  H        -0.7888018713       -0.5474545798       30.3651910525
  H        -1.9589812044       -0.8658525754       31.5681506370
  O        14.3729122661       -4.0988177341       23.3968311322
  H        13.7881789278       -3.8028210465       24.0887332747
  H        14.8304722640       -3.2681618139       23.1946068446
  O         5.8108620056       -4.0874543167       29.7834406037
  H         5.4799232225       -3.5460840644       29.0257294825
  H         5.2580114170       -3.8743264438       30.5324164597
  O         0.0512861461       -1.1699797539       27.4092831035
  H         0.5121024345       -1.1753251129       28.2983262390
  H         0.6327230157       -1.8200236711       26.8690696229
  O         4.9767944978        0.8941984844       35.1601835393
  H         5.5442619894        0.4888504725       35.8308229265
  H         4.5336349145        1.6523746891       35.5554698311
  O         5.1438927785        4.3054346521       28.2181043990
  H         5.7475751959        5.0677502976       28.4391852107
  H         5.1857645466        3.7252799596       29.0040259572
  O         5.6017015103       -5.7593229939       35.7996372794
  H         5.7148239310       -4.8007065291       35.9505294402
  H         4.7078648184       -6.0500103843       36.2440635603
  O         2.9540318944       -5.4774527025       33.5751224289
  H         2.6029824787       -5.1542336460       34.4037973967
  H         3.5127314026       -6.2214022963       33.7385276703
  O        -1.4718231773       -7.9668459181       31.3225281065
  H        -1.3929876707       -7.2148169484       32.0256030478
  H        -0.9226282912       -7.7097270328       30.5569453470
  O         6.9886829099        1.8639652522       31.3306431043
  H         7.3359534661        1.0168392908       30.9194115657
  H         7.5465743144        2.6578366948       30.9766800952
  O         7.5719319724       -2.0915982877       32.2131362465
  H         7.8099615582       -3.0472915733       32.3126554942
  H         7.8581178751       -1.6546281534       33.0702641836
  O        16.9102114971       -6.8738848371       19.5124498115
  H        16.8933689404       -6.0451025116       19.0510181120
  H        17.7628445129       -6.8734954247       20.0856545414
  O         4.1394727942       -3.7116706783       19.6308021146
  H         3.7772387857       -2.8177215573       19.8703211560
  H         3.7995451368       -4.3133722243       20.3553957785
  O         3.1180444970       -6.4218063624       24.3341050071
  H         2.8531210033       -6.7729893882       25.2019490821
  H         2.6207641620       -5.5757148548       24.1431061966
  N         8.8586789372       -3.5891836576       29.2137433839
  H         9.0118263864       -4.6246279253       29.0834305398
  H         9.4043767961       -3.2924265132       30.0230631262
  H         7.8856050829       -3.3791560652       29.4042965412
