     193
 CELL 12.4294 12.4294 12.4294 90.0 90.0 90.0 i =    94520, time =    47260.000, E =     -1096.5678150096
  O         7.5084619028       -0.3206792932       47.4534754276
  H         6.8846220890       -0.7553451907       46.8451557779
  H         6.9162991645        0.4084898896       47.8960576476
  O         9.7181144389       -8.1321903287       43.9964310464
  H        10.4173598358       -8.5192765411       44.5595912998
  H         9.8988629362       -7.1638244287       44.1218810123
  O        10.0666334718       -1.8102487433       48.3865010534
  H        10.5609906375       -2.1859915381       47.6494789185
  H        10.6472033473       -1.9766865850       49.0974371201
  O         9.2464824298        1.3246292472       45.9738372591
  H         8.5815664719        0.6796965729       46.4709593767
  H         8.8231341553        2.1692991714       45.9999907574
  O        -2.2456427675       -5.2309767828       44.1021904721
  H        -1.5047930244       -5.4473094221       43.4716358854
  H        -2.0343148435       -4.6026181842       44.7802330467
  O        16.7811691584       -2.4469323550       54.4652838269
  H        17.0941106011       -1.6832948627       53.8965926541
  H        16.9408850772       -3.2379392997       53.9118545601
  O         6.5657432868       -0.3512520813       38.3608758742
  H         7.4961615133       -0.6153624868       38.7173090884
  H         6.3113861092       -1.2268374127       37.9003315816
  O        14.4581090448        4.0488982389       48.4354244356
  H        13.6740199889        4.5904298142       48.7320209967
  H        14.5361931878        4.3944642826       47.5197192469
  O         6.6627878929       -6.7992036768       35.9472216876
  H         6.2499670234       -5.9090111401       35.6854220799
  H         5.8799053871       -7.2389979313       36.3854749841
  O        11.6053554953       -2.1207074673       37.9145728360
  H        12.0705774822       -1.3487049251       38.3395294766
  H        11.5360111033       -2.7544078909       38.6323516260
  O        11.6325673140       -4.3195743200       39.7038063651
  H        11.0883057932       -4.6403998567       38.9319187674
  H        12.4417491469       -4.8846890699       39.5150314438
  O         4.4839613667        5.3629169466       42.0183217530
  H         5.2428616451        5.6710038022       41.4713401841
  H         3.8274803393        4.7709126187       41.5442829524
  O        -0.0676367223       -0.1535083319       52.0947274601
  H         0.6401826595        0.3791205299       51.7401387237
  H         0.4244267204       -0.7558326110       52.7583455392
  O         8.1467219899       -1.5869916202       42.0258972512
  H         8.2853573114       -1.4871069337       41.0390880255
  H         7.6399083324       -0.8047719824       42.3528239687
  O         8.0916578309        2.9535883963       42.5705029429
  H         8.6674604599        3.5354370006       43.1052729169
  H         8.3293265093        2.9609506850       41.6007853417
  O        18.0718454862       -0.4421801386       45.0929504764
  H        17.6733477702        0.2415917998       45.7252245101
  H        17.2985535958       -0.9923650763       44.8767999523
  O        17.2700146908       -4.1152694333       39.8965259204
  H        16.3698708624       -4.4559249215       39.9075499461
  H        17.9530301621       -4.7398633559       40.2150074638
  O        10.0496483341        4.7389250885       47.7242740243
  H        10.3551862188        4.3303236822       46.9499159683
  H         9.4166353125        4.1189923389       48.0891987470
  O         6.4802682072        0.6050648222       42.7803592593
  H         6.8494983325        1.4833735137       42.7388001497
  H         6.1822825768        0.5037475623       43.7503838763
  O        12.5367857610       -6.6677970963       48.6936156545
  H        12.5634742068       -5.6522930010       48.6859715294
  H        11.5942788338       -6.8189861342       48.5699372514
  O        14.3101967387        4.5115570598       33.3376500455
  H        15.0029444164        3.9262962343       32.8035586085
  H        14.3304708457        5.3626026327       32.8295091146
  O         6.5897561379        6.8743658723       44.7978946189
  H         6.9480879276        7.4190534083       44.0326831249
  H         6.4056628820        5.9422431918       44.5637800509
  O        14.7506696740        0.0989162743       48.1798875994
  H        14.3013393806        0.6548623577       48.8362480014
  H        15.1763907063       -0.6139220295       48.8469107559
  O         6.5682926080       -9.2397291472       34.2890511240
  H         6.4666794260       -8.8643246686       33.3923854060
  H         6.7332735239       -8.3643526853       34.7596506572
  O         3.5830169379        2.6047674850       44.6220630870
  H         4.4108750906        2.9553071550       44.2987180145
  H         3.7615629760        2.2791039128       45.5336742510
  O        13.9602476681       -3.3586048494       32.8352993890
  H        14.3052090123       -3.4901173110       33.7591118914
  H        14.5143655758       -2.6762307839       32.3798200191
  O        11.9032026592       -8.6147070322       51.9222350183
  H        12.2344946526       -9.3352513166       51.3024092961
  H        12.2074491085       -8.9882612942       52.8433979271
  O        14.7393979633       -3.4953150788       39.3779761141
  H        14.0943772222       -3.6469689537       38.6277663373
  H        14.1891543288       -3.0692007153       40.1094309443
  O         7.9707800340       -4.2079418337       42.8453555896
  H         8.8410845258       -4.4180087601       43.2895197100
  H         7.9481395810       -3.2288568319       42.6313314895
  O         4.1780038318      -10.9529180338       46.8386575122
  H         3.5767308974      -11.2834689532       47.5210039494
  H         4.9114699516      -10.4727918743       47.2448113450
  O         2.8690122456       -1.4009156413       43.9081060361
  H         2.3938642272       -0.5805416177       43.5742608848
  H         3.5027279044       -1.6359456110       43.1773466204
  O         3.3760806184       -1.8264027410       49.7715106687
  H         4.3004882787       -2.1251673326       49.7987404628
  H         2.9579109206       -2.3283212126       50.5643054343
  O        13.5146830878       -6.3909783767       39.0065788382
  H        13.5279431546       -5.9904511473       38.1004287685
  H        12.8473170141       -7.1141115318       38.8698361341
  O         6.3861197990        1.7589233491       36.7504089196
  H         6.4577403155        1.0174531463       37.4196437550
  H         5.7047069498        2.4229884157       37.0746532030
  O        17.4229303905       -0.1001498611       40.6165661997
  H        18.1371397244       -0.1581669737       39.9492385532
  H        17.8553682457        0.3275799674       41.4000399091
  O        17.0067179167        3.6208829165       37.2729733101
  H        16.2906396580        3.8581651793       36.6848596759
  H        16.7638781803        3.9322010499       38.1367406479
  O        11.9315553885       -6.2516410284       42.1417007113
  H        12.8375151176       -5.9668269630       42.4974514986
  H        11.8403832251       -5.9152291228       41.2362843877
  O        13.5002355096       -2.2422930723       41.2415929821
  H        13.9952477914       -1.9839529134       42.0403001693
  H        12.5106872237       -2.4606070041       41.6787820149
  O        13.0205332234       -4.0293872685       49.2008535968
  H        13.8452416805       -3.8034270185       48.7174909349
  H        12.5637253286       -3.2079000277       49.4827401376
  O        19.1958553692       -5.6847470132       40.9216745014
  H        19.7627666943       -5.1822741652       41.5834907857
  H        19.7580597161       -5.8803233782       40.2009369619
  O        -1.7043233512       -0.1902654149       32.0295364296
  H        -2.1728105647        0.4180470532       32.5935887943
  H        -0.7506379203        0.0325065342       32.2430313814
  O        13.1897125902        1.8142418782       49.7448816933
  H        13.7809860783        2.5874019170       49.3704873600
  H        12.4530597805        1.7740066336       49.0765090137
  O        10.2083735875        0.9062028481       54.4636288885
  H        10.3239507249        0.3584376777       55.3262937110
  H         9.3770098212        1.3957454974       54.5821748454
  O         9.2572784021        3.5956454651       39.5261514751
  H         9.1065406140        3.1239259928       38.6680968183
  H        10.2829670121        3.6839227689       39.4681596927
  O        15.6582123252        4.0618043221       39.7231085747
  H        15.2813663413        3.1463434818       39.7045101726
  H        14.9729156197        4.7074479351       39.5374963682
  O        21.6218642390       -0.5106118323       39.3972665932
  H        22.0639587726        0.0923314323       40.0556569346
  H        22.3892647724       -1.0662143275       39.0897139176
  O        14.1302368515        1.1289294548       43.2451487785
  H        13.5120796996        1.8604502381       42.8684717652
  H        14.8240907969        1.6522903628       43.7321659097
  O        15.3446425796       -3.5456186218       47.7360402950
  H        16.0915474137       -4.1861514415       47.8305948094
  H        15.4831270462       -2.8049271407       48.3640918826
  O         5.8606784581        3.7933932125       43.7634342246
  H         6.5666432003        3.3723956487       43.1096202805
  H         5.3668918235        4.3677420731       43.0732750954
  O         0.3608877198        0.8654132606       45.8112648765
  H         0.9966095292        1.0240959649       44.9825987129
  H         0.8775674623        0.4186806000       46.4636774801
  O        18.0911821187       -2.9018174583       37.5383929503
  H        17.8005385365       -3.4108703467       38.3553074083
  H        19.0302000635       -3.1903485969       37.2347625256
  O        11.0788343622       -2.7632814919       45.7522801552
  H        10.9845612702       -1.9392094286       45.2499242045
  H        12.0103122579       -3.0205841493       45.5947442821
  O         2.5075651042        1.4775439224       40.2782956394
  H         2.0599986903        1.3411022675       41.1348189222
  H         3.3583624530        0.9700782210       40.4260076757
  O         8.8118352304        2.7850597622       49.2777256113
  H         9.3508257456        2.0043766600       48.9939050615
  H         7.8492663321        2.5250941847       49.2848236257
  O        12.1949203935        2.7901397667       42.0389671540
  H        11.3699075244        2.2236271993       42.1638287361
  H        12.1172833380        3.6613221995       42.4743162715
  O        10.2099649416       -4.8975084682       49.7548327535
  H         9.7068827353       -4.0915306079       49.4112292582
  H         9.4221277641       -5.4655691392       50.1144083099
  O         5.7263276998       -4.6631445352       47.2691727984
  H         6.2693951545       -3.9501760679       47.6250300098
  H         5.9175060814       -4.7517073446       46.2919562347
  O         1.8129318846       -5.6896602282       43.7060829277
  H         1.5785302575       -4.9069748585       44.3049269158
  H         2.6201043686       -5.4193587738       43.2054870379
  O        11.6789717881        3.3866451606       45.6485082430
  H        11.8361823281        2.4074313436       45.9184646721
  H        12.5764897843        3.7928847387       45.7031458043
  O        10.8142532103        0.8926182245       48.2448072140
  H        10.5081975760       -0.0626865578       48.2455682622
  H        10.5272714780        1.1719631537       47.3544022141
  O        21.3439755286       -5.3246047804       34.3149475608
  H        20.5248450928       -5.5333412863       33.7738541735
  H        21.6200124835       -6.1657883761       34.8078106813
  O         7.7917656804       -3.3264758487       36.0597909500
  H         8.2554131041       -4.0748108100       35.5521886657
  H         8.2955142083       -2.5190384264       35.8396920833
  O         8.1463972318       -6.3343503595       38.6155222172
  H         8.5133469928       -7.1821050281       38.9224257008
  H         7.5325406085       -6.5120648021       37.8769974158
  N        11.0496356102       -2.4243380744       42.2839696511
  H        10.6485588021       -3.4138197310       42.2389838157
  H        10.7584722037       -1.9955103152       43.1837485540
  H        10.4838382575       -1.9055620720       41.5625150714
