     193
 CELL 12.4294 12.4294 12.4294 90.0 90.0 90.0 i =    38520, time =    19260.000, E =     -1096.5453165629
  O        -2.0912735309        0.7630743781       18.1219511092
  H        -1.7687883612        0.2999279243       17.3089806955
  H        -3.0077222797        1.0606403090       17.8606331724
  O         0.9386044823       -8.1309012853       12.5481949860
  H         1.7326164044       -8.6392651207       13.0002307925
  H         0.8545612038       -7.4471011476       13.3028433095
  O         1.1132520620       -6.4624248747       14.6262608366
  H         1.4021653068       -6.8756132603       15.4956365269
  H         0.1335826897       -6.2081072581       14.7543060123
  O        -1.0450492438       -0.2140847737       15.6942373066
  H        -0.1841063388        0.2418951857       15.4779523640
  H        -1.2824034296       -0.8853073010       15.0020295883
  O       -10.5727224540       -4.3699468397       10.7352249121
  H       -11.3425802256       -3.7500008300       10.9175712937
  H       -10.1520634248       -4.0054186084        9.8962601368
  O         5.2377590714       -5.2348568348       20.1172671276
  H         5.0786691432       -5.1906261435       19.1540251323
  H         4.4058875692       -5.6822805193       20.5009407408
  O        -2.6791995236       -1.2270096761        7.7167183499
  H        -2.9623495690       -0.7437509381        8.5686304931
  H        -2.5061763356       -0.6089862332        6.9252472132
  O         5.0459363846        4.7334569533       17.1307804394
  H         4.1126660114        5.0875013826       17.2367097408
  H         4.9778794891        4.2720523759       16.2284098291
  O        -2.4200255462       -8.1982677185        3.7375107081
  H        -1.6356243785       -8.8263387767        3.9999518910
  H        -2.8072378610       -8.1228278461        4.6327956709
  O         0.4014855736       -1.0409347761        6.9766726237
  H        -0.3707453931       -0.9083101837        7.5645494329
  H         0.1277132591       -1.5804975951        6.1777048990
  O         1.2941461382       -4.8321715462        6.2213826784
  H         1.9326633399       -4.3189006192        6.7943476008
  H         0.6945087131       -5.3959608445        6.8673325352
  O        -9.4781029506        5.4288197519        8.0082687939
  H        -8.9268851819        4.6882523450        8.3429415820
  H       -10.1428044177        5.4164716056        8.8420907587
  O       -10.2754629987       -2.3477270696       16.4064098413
  H        -9.6735657857       -1.6900141944       16.7648770405
  H       -10.2933098283       -2.0653288010       15.4632496033
  O        -1.9730970581       -3.5992850661        9.2623457186
  H        -2.0180592272       -2.8941451350        8.6292557947
  H        -2.8236803640       -3.6022505653        9.7059567206
  O        -0.9846057091        1.1772150550       10.2005533666
  H        -0.9867018182        1.6445819332       11.0400131857
  H        -1.0331191513        1.8638073431        9.4812224087
  O         8.2763658046        0.0042731211       13.4825305792
  H         8.1678614139        0.1007444000       12.5059662957
  H         8.8541713043       -0.8155429796       13.5200459940
  O         4.3841135419       -4.1009698125        4.9925535249
  H         4.9587205499       -4.5191531080        4.2393670975
  H         3.6620349088       -3.6619789764        4.5805164579
  O         1.3779041853        1.4670471103       15.6782041306
  H         2.0741746264        1.0247586068       16.1731528990
  H         0.8667801950        2.0781020411       16.3040218437
  O         1.1305959140       -0.5030678425       10.5238841220
  H         0.6104960020        0.2992628343       10.2385708168
  H         1.9330580174       -0.1353261236       11.0268544095
  O        -1.5899256598       -6.0132773802       14.9286107554
  H        -1.7094577408       -5.0409846363       15.2547312861
  H        -1.7321373713       -6.7085388712       15.6204357978
  O         5.0863810122        4.0725136507        1.6930073380
  H         5.7786848548        3.5702568937        1.1812303065
  H         4.9645459649        4.8532620982        1.1262397104
  O        -2.6295323046        1.8381677591       14.5947713775
  H        -3.1909958407        1.1195665543       14.2087431200
  H        -2.0316065171        1.3679372744       15.2691269521
  O         5.9668632663       -0.0200043019       16.5310718349
  H         6.6302471152        0.6632885752       16.6223141044
  H         6.3495561041       -0.8483978235       16.9308866651
  O        -3.1435192935       -7.8382712003        6.4333150078
  H        -2.9925774725       -6.8808942789        6.6825570974
  H        -2.5748689574       -8.2783513651        7.1481506305
  O        -5.1044744275        1.6073901789       11.4153149717
  H        -4.8316178963        2.5155862430       11.7656633556
  H        -6.0229671620        1.4731087547       11.8443964488
  O         6.3206915150       -5.5346679220        2.7273840198
  H         6.4146505073       -6.3415766563        3.1885961627
  H         5.8319324035       -5.6845156098        1.8360170765
  O         3.3086676582      -12.2455847504       17.0317681866
  H         3.0958577671      -11.9857132315       17.9844311441
  H         4.2949582905      -12.2710569401       16.9373771808
  O         2.3712005181       -3.0376226738        7.9424777558
  H         1.7140562537       -2.2854453441        7.7237894442
  H         3.2891893451       -2.6017454426        7.9070885655
  O        -3.7406259454       -6.0745252503       10.2896288933
  H        -3.7549688732       -5.6908667971       11.2058048880
  H        -3.0897496526       -6.8078861111       10.4039600523
  O        -4.5208231853      -10.4899446185       16.9811300434
  H        -4.8721664840       -9.8721254453       17.7294464140
  H        -3.8088527657      -10.0593355404       16.4889924578
  O        -5.0222428739       -2.9679784231       13.9878522889
  H        -5.0161436136       -3.6930826490       14.6316828582
  H        -6.0033221339       -3.1588449317       13.7422216168
  O        -6.1137572573       -2.1461406848       18.2080527524
  H        -6.8742362159       -2.7144984595       18.0556076061
  H        -5.3809699510       -2.7886874168       18.2530295709
  O         1.1271723030       -8.9097372004        6.7782447516
  H         1.8035102020       -8.2677974503        7.1657145584
  H         1.6876776595       -9.7811789955        6.7401722734
  O        -3.4336959386       -0.2271837697       10.0603907396
  H        -4.2307950884        0.3507181515        9.9949558677
  H        -2.6667930589        0.3639811235       10.3409549134
  O         8.3112919893       -5.4962822722        7.7572165393
  H         7.3269395537       -5.6593359136        7.7400975577
  H         8.5404413388       -5.6417136557        8.7504895421
  O         6.7595167065        3.4390948113        6.5121199497
  H         6.2047368960        3.9442600333        5.8862203286
  H         7.5484558659        4.0508450179        6.6132813666
  O         2.7637699282       -4.7424597723       13.1052373575
  H         2.0235047367       -5.2723175563       13.5621301783
  H         2.2782897724       -4.2474988270       12.3814978341
  O         4.8104138927       -1.7150728017        8.2123307479
  H         5.4091524472       -1.9290506469        7.4283341122
  H         5.1026777528       -2.3919313765        8.9737646887
  O        -0.0685404150       -2.7919228602       17.5093451955
  H         0.6908728054       -2.4947459488       17.0070701728
  H         0.2830446786       -3.6154385172       17.9272733819
  O         5.9431807971       -7.7073153234       10.9793314844
  H         6.8979515751       -7.4468854078       10.7568125334
  H         5.7209221744       -8.3904962183       10.2895244356
  O        -7.6004453644       -2.9510556249        0.4511366447
  H        -8.4782392868       -3.2115027466        0.8438954373
  H        -7.4991891248       -2.0179863725        0.6495090054
  O         2.2988930382        5.3420014759       17.1507591096
  H         2.0337676920        6.2452200385       17.5318448682
  H         1.7780734967        4.7379255978       17.7696794300
  O         2.2415382606        1.0112739498       19.4369822947
  H         1.4570054621        0.3968079695       19.4524164036
  H         2.8425263553        0.8704700641       20.1675974990
  O        -1.5309170585        4.6566820235       10.8204460076
  H        -0.6669969870        4.9382390665       11.1473916858
  H        -1.7332696279        3.8894493766       11.5015708623
  O         4.8126337069        3.2158992643        8.7197350173
  H         4.8516501758        2.1738809948        8.7420872137
  H         5.5104180789        3.4359287475        8.0042133699
  O        11.1508662242        3.3149628024        8.5448830529
  H        11.0756195389        4.0080807367        9.2795966062
  H        11.9210971806        3.6394516913        8.0208046465
  O         4.3071009964        0.6503371811        9.1891394840
  H         4.8056919646       -0.1591759122        8.8239592184
  H         4.3216347285        0.6985919054       10.1648095370
  O         5.4520099317       -0.4992122013       13.8430628101
  H         5.4366033758       -0.2450974470       14.7909704485
  H         6.3710921621       -0.2742640908       13.6972315389
  O        -1.4231457995        2.6025818148       12.4291507067
  H        -0.6266160769        3.1526312563       12.7105438044
  H        -1.8206032999        2.2605977590       13.3068362995
  O        -9.2689429558        0.2804799108       12.0713933288
  H        -8.5716356959       -0.1980850252       12.6546344171
  H        -9.3110720402        1.2267061887       12.4654968078
  O         8.9283893504       -3.5468786636        5.8489212135
  H         8.7956862157       -4.3163452623        6.5144712739
  H         9.1234565142       -2.7858912519        6.4104506062
  O        -0.2824167506       -2.6150138640       11.2064466071
  H         0.2456863172       -1.8091396820       10.8939707088
  H        -0.8381582061       -3.0207906648       10.4998727023
  O        -4.0719562785       -2.6370504309       10.9707920730
  H        -3.6471353158       -1.7628205206       10.8671357746
  H        -4.3773568593       -2.6763752950       11.9550167930
  O        -0.6545802964        2.7301154699       17.1731774208
  H         0.0441608050        3.2790537558       17.5342874029
  H        -1.0809086726        1.9825073648       17.8195523545
  O         1.3094609806        5.5856580403       10.2028086083
  H         1.5293178995        6.5368185249       10.3293363130
  H         1.3655329825        5.1627045773       11.1058215321
  O        -2.0781654907       -3.5831171008       15.9745444582
  H        -1.1952437663       -3.3741708179       16.4648662109
  H        -2.7925932325       -3.7207339653       16.6480022245
  O        -1.9846271371       -1.8345566252       13.5046996409
  H        -1.6138543813       -2.0959569451       12.6097746076
  H        -2.1472862292       -2.5857326337       14.0713279609
  O        -7.3255707372       -6.0084331560       12.8177513907
  H        -8.2719067334       -5.7228858817       12.6869593018
  H        -6.9538748060       -6.5120253424       12.0456686340
  O         2.8726718210        2.6784596434       13.5590323251
  H         2.3786006217        2.3038228947       14.3536674994
  H         3.6690469097        3.2077594461       13.9779534083
  O         1.6374289574       -1.5181688373       13.7996600602
  H         2.2127512127       -0.8544323291       13.4126424075
  H         0.8622241111       -1.6691300087       13.2177521742
  O         8.0784944487       -8.7433632930        0.5009434267
  H         8.2088076333       -7.8023632448        0.5287792990
  H         8.4531493139       -9.1469470595        1.3240075684
  O        -3.8478972161       -6.0176334265        0.8762513736
  H        -4.2657229630       -5.3952546889        1.5978391539
  H        -2.9268245883       -6.0909411056        1.2478773965
  O        -0.4335007340       -6.0668425634        8.1244872976
  H         0.1267712416       -6.5036429383        8.8542721026
  H        -0.8001325060       -5.3129197766        8.6217956990
  N         5.5420649505       -3.2912034610       10.1617139026
  H         5.1205945925       -3.2749067069       11.1042063053
  H         5.4948059850       -4.2431319738        9.8904526385
  H         6.5336677031       -3.1299134946       10.3900429237
