     193
 CELL 12.4294 12.4294 12.4294 90.0 90.0 90.0 i =    32520, time =    16260.000, E =     -1096.5447087023
  O        -3.7456119718        0.6900568513       13.8752528039
  H        -3.4051222958        0.4025581413       12.9881210595
  H        -4.7264226847        0.9429466408       13.9644580122
  O         0.1890817973       -8.0949499145        9.3541956967
  H         0.5745846548       -8.9631259773        9.4461877032
  H         0.0991534706       -7.7951668055       10.3457438146
  O        -0.4319857499       -6.7291913834       12.0560207197
  H        -0.0616525437       -7.0296918240       12.9669779955
  H        -1.4152489831       -6.5162698068       12.1119802785
  O        -2.3437076598        0.2256542258       11.6345858295
  H        -1.4251818015        0.3177782655       11.9588455176
  H        -2.3695203703       -0.6094547326       11.1164336243
  O       -10.6795730455       -4.0359436320        7.8673630747
  H       -11.4388058298       -4.3796021459        8.4030635729
  H       -11.1219987826       -3.5109083275        7.1482719798
  O         3.9463394270       -5.4715623942       16.5383292363
  H         3.8087808513       -5.1820975338       15.5967494951
  H         3.3725818216       -6.3024606585       16.7028724064
  O        -3.4372930949       -0.6419409795        3.7013643850
  H        -3.6938652762        0.1581340795        4.2074406570
  H        -3.5391343250       -0.2058553493        2.8468840812
  O         3.6765801416        4.3721983608       13.7660903914
  H         2.7624605285        4.8077568658       13.7964547567
  H         3.6563638469        3.8669412521       12.8720858698
  O        -4.6433139745       -8.0338635308        0.8203708485
  H        -4.4480762800       -7.7657977780        1.7458070758
  H        -5.3097416818       -7.3581421197        0.5527378524
  O        -1.1068835965       -1.3286404874        4.0537400307
  H        -2.0058655496       -1.0470964444        3.8540667175
  H        -0.8969734093       -1.9071822046        3.3146702800
  O         0.0948915783       -4.8724817313        3.3526970587
  H         0.6734183698       -4.3495534455        3.9528994663
  H        -0.7287440540       -5.0947700550        3.9950996615
  O       -10.1043380263        4.7373712333        4.5298756352
  H        -9.4583661317        4.1042526499        5.0001840675
  H       -10.6902367063        5.1587446591        5.2524431090
  O       -10.9890595390       -2.2269833786       12.0679063944
  H       -10.6537488995       -1.4817212738       12.6795587358
  H       -10.3490855358       -2.5533893472       11.3828719526
  O        -2.5804307240       -3.5165089945        5.9025599832
  H        -1.9922518406       -2.8284356472        5.3381973350
  H        -3.4304814966       -3.0560163309        6.0434580369
  O        -1.5154905729        0.7403001026        7.6370099898
  H        -1.7690974683        1.6478013632        8.0177907816
  H        -1.0300885587        1.0393425683        6.7744996997
  O         7.0979675591       -0.4317816398        9.9850552670
  H         7.3905404715       -0.4497791123        9.0226307160
  H         7.6985053129       -1.1453821889       10.3102575983
  O         3.8263769305       -4.1903108270        1.1519871477
  H         4.5891929688       -4.7704343605        0.9552425503
  H         3.1819899749       -4.3780789729        0.4629820591
  O        -0.0026653664        1.2790481578       12.5867470439
  H         0.5628525286        0.7284522263       13.1775792205
  H        -0.5597656278        1.9530539786       13.0332350301
  O         0.1870742168       -1.1929126614        8.4358926352
  H        -0.3780395115       -0.4373240954        8.2958209050
  H         0.8614467859       -0.7454824022        9.0404523056
  O        -3.0022429754       -6.3173800176       11.9554203916
  H        -3.0436107194       -5.3508265256       12.2894126497
  H        -3.5095044193       -6.8445289143       12.6099573820
  O         3.5508788089        3.5518712433       -1.2227485863
  H         4.3359407687        2.9830724966       -1.5448926077
  H         3.5766313876        4.4609262522       -1.7112482251
  O        -3.3283170408        2.9521072290       11.0698946221
  H        -2.9988677313        2.0582424247       11.3495186942
  H        -3.3376933993        3.4845707621       11.9352113541
  O         4.5945449459        0.2225752888       12.6534857528
  H         5.3045766010        0.9458147261       12.8209382940
  H         4.9403909832       -0.5649481236       13.1248040744
  O        -4.7636990711       -7.3652581687        3.5935305924
  H        -5.0389767020       -6.4217125642        3.8429236082
  H        -4.1510996973       -7.7470031983        4.2872216431
  O        -6.0038816933        2.2110252127        7.5134680450
  H        -6.9133373931        2.1286544824        7.0268164249
  H        -6.1172291819        2.4025002004        8.4457754468
  O         5.7928462497       -6.4534363165        0.3799340619
  H         4.9644150394       -7.0173844725        0.4969673092
  H         5.6523489401       -6.0701146400       -0.5579050199
  O         2.1742209417      -12.6204923383       13.7548536044
  H         2.5030068389      -12.8760066049       14.6487223788
  H         3.0803618488      -12.3043656265       13.3322135857
  O         0.9478191769       -2.8418181936        5.1938744985
  H         0.2318059868       -2.2356999742        5.0079280148
  H         1.8007283977       -2.5235118602        4.8156116570
  O        -5.4001938415       -6.0833732819        7.5574241393
  H        -5.0900984621       -5.3177569648        8.0026598300
  H        -4.5977957351       -6.5318703785        7.1494382735
  O        -5.9547300445      -10.5093756991       13.7832078346
  H        -6.3687924612      -10.1927358821       14.6225833647
  H        -5.7280912696       -9.6207721124       13.3846778053
  O        -4.7295925914       -3.8872343320        9.2060879230
  H        -4.1414296150       -3.2975596104        9.8223349680
  H        -5.5916041778       -4.1161342764        9.6046024922
  O        -7.2850744984       -1.7438768973       14.4653865029
  H        -7.8068826392       -2.4775192777       14.0681459607
  H        -6.3673010481       -2.1601460748       14.5437088336
  O        -1.2394995545       -8.7441874769        3.9529851699
  H        -1.1363994576       -7.7684834381        4.1361436686
  H        -0.5378615642       -9.1781005943        4.4452485997
  O        -4.3415851037       -0.0400444930        7.6328669923
  H        -4.7829957909        0.8364761387        7.4395132416
  H        -3.3335157651        0.1795601722        7.5630553257
  O         6.5968778959       -5.0076092788        4.2935308501
  H         5.6117166793       -4.9500147115        4.1678283511
  H         6.8473709619       -4.6425062551        5.1777150824
  O         5.3212187630        3.4439236815        3.4199436361
  H         4.6738583607        3.7817968335        2.7157549709
  H         6.0970515739        4.0638012489        3.4201542755
  O         1.7120065165       -5.0982975314       11.3874920635
  H         1.0090662386       -5.7026637762       11.6971995011
  H         1.3179362950       -4.2009558562       11.2713199495
  O         3.3013591565       -1.3265094579        4.1922330216
  H         4.0410861353       -1.4860301741        3.5742145682
  H         3.5581997962       -2.0765626150        4.8689753551
  O        -0.8408539521       -2.8676233649       13.9853410275
  H        -0.0399568951       -2.6791396909       13.5080856409
  H        -0.4423829438       -3.6591924978       14.6183836434
  O         4.3077506362       -6.7714695453        7.1549253684
  H         5.3130524593       -6.6062407810        7.1623648462
  H         4.1566826947       -7.6999519045        7.2602310799
  O        -7.0951512656       -4.5521550138       -1.9109573563
  H        -7.7851235437       -3.8310533767       -1.9815604680
  H        -7.5851228548       -5.3207661813       -2.2428391362
  O         1.1650178408        5.2222843959       14.4093343649
  H         0.9237439142        6.0888141936       14.8365782392
  H         1.2941036397        4.5832881639       15.1874409430
  O        -0.1134360318        1.3111876550       17.6902655515
  H        -0.3166355333        0.4016757659       17.2416902183
  H         0.8251015497        1.1239099914       17.9443621204
  O        -3.2557776043        4.8969469833        6.5023205246
  H        -2.5225022685        5.5588306217        6.2011170338
  H        -2.9593490962        4.4297391764        7.3699099398
  O         4.1321627000        2.9562536355        5.8722624811
  H         3.7620233061        2.0857832017        5.6534949654
  H         4.6389391478        3.1797698631        5.0997321870
  O         8.5095481295        1.9450200118        5.0139559831
  H         7.9905391851        2.3569491895        5.7365768652
  H         9.2937463455        2.5440323820        4.8186907182
  O         2.6633457604        0.7161016905        5.7876196359
  H         2.9929730308       -0.0257473593        5.2614093982
  H         2.7316596809        0.5984859456        6.7686359170
  O         4.5193699537       -0.7079437904        9.9398679613
  H         4.4363328997       -0.3296905340       10.8467553983
  H         5.5423877889       -0.8465372450        9.8391234877
  O        -2.3346008059        3.5505422090        8.6287587947
  H        -1.4934282533        3.9129113439        8.8732418600
  H        -2.6575199829        3.4077264638        9.5765953382
  O        -9.5128529885        0.8478206167        8.3298736452
  H        -8.9227141863        0.1573183017        8.5708667003
  H        -9.9835577628        1.1853023220        9.1512442958
  O         7.4992792869       -2.9019180198        2.7537928458
  H         7.2866279060       -3.6754694179        3.3828567629
  H         8.0419561384       -2.2220599797        3.2813305101
  O        -1.1570714982       -3.4746459298        8.5624275020
  H        -0.6401408729       -2.6016730835        8.6244939587
  H        -1.7202625627       -3.2528724175        7.7580812488
  O        -5.0330237229       -2.6817841247        6.6448654148
  H        -4.7294487459       -1.7937807594        6.8358806216
  H        -4.8954730849       -3.1074573515        7.5272281378
  O        -1.7153431258        2.9484474374       13.7528933859
  H        -1.5008416909        3.3246605806       14.5968864961
  H        -2.3897696410        2.2738194789       13.9011842850
  O         0.8740452165        5.7128660687        6.9077603776
  H         1.4519457748        6.4641246320        7.0539014203
  H         0.6117709410        5.3248098473        7.7672165444
  O        -3.2417084740       -3.8786334392       13.0723207203
  H        -2.3892782704       -3.4508344731       13.4263998865
  H        -3.8890620649       -3.5394759815       13.7616339516
  O        -2.8355669500       -2.4285534572       10.4861113949
  H        -2.1450922807       -2.8383325411        9.8828404271
  H        -2.7006202925       -2.8746462198       11.3931910844
  O        -8.8159124857       -6.6225481851        9.8953413175
  H        -9.5534764124       -5.9531422126       10.1236087277
  H        -8.6451434767       -6.6860245252        8.8777410523
  O         1.4012478641        1.8818824056       10.4138781304
  H         0.8407816054        1.6893237448       11.2306609515
  H         2.0567389797        2.5259393297       10.7162623281
  O         3.1496627004       -2.9308067793        9.9842898856
  H         3.5554147670       -2.0219977412        9.8904543941
  H         2.7929413212       -3.2799105736        9.1938829783
  O         6.1729984044      -10.1502764973       -1.9130767076
  H         6.8517453304       -9.3958330934       -1.8730607499
  H         6.8474468651      -10.8949988145       -1.9088890763
  O        -5.0686073785       -7.0773327761       -2.1930207161
  H        -5.1549042384       -6.8711988068       -3.1507862051
  H        -4.2476212135       -6.5943005818       -1.9550732231
  O        -1.2855864364       -6.0801641207        5.5455069992
  H        -0.3970909797       -6.1024403707        5.9818090389
  H        -1.7497688729       -5.2556763038        5.7411386650
  N         4.4590479446       -3.0762868777        5.9976243160
  H         4.1633503201       -2.7593462499        6.9105445590
  H         4.0353905826       -4.0129022773        5.8300558618
  H         5.5105950434       -3.1752955033        5.9813475538
