     193
 CELL 12.4294 12.4294 12.4294 90.0 90.0 90.0 i =    78120, time =    39060.000, E =     -1096.5255252566
  O         5.5165328749       -0.2105931999       38.3901561610
  H         4.8606836170        0.5041365345       38.2329677776
  H         5.6205061198       -0.5056659866       39.3019857085
  O         5.0081997213       -7.4671656615       36.2335539649
  H         5.7749511840       -8.1134396827       36.3418776254
  H         5.4404901581       -6.5791109577       36.3383262873
  O         9.8669733475       -4.2647898207       37.1089004776
  H        10.7661808335       -4.0330436985       36.8364049518
  H         9.8469852550       -5.1244000416       37.4818820989
  O         7.6153262252       -0.3138844537       36.6383093744
  H         6.8202984549       -0.1955681335       37.2956578143
  H         7.3862966296       -0.7496884794       35.8180785690
  O        -4.0027997894       -6.6061516946       33.3143170326
  H        -4.1484787862       -5.8062922530       33.9177819538
  H        -3.6120638585       -6.2465060137       32.5336729640
  O        14.6927086756       -4.0804190387       44.8939047963
  H        14.0224078767       -3.8942313066       44.2085183245
  H        15.0270610170       -4.9776735804       44.7443014223
  O         5.7253060030       -1.5975114165       28.4095355672
  H         4.8095845852       -1.2402486990       28.7207203215
  H         6.3145651889       -1.1005834225       29.0172142640
  O        13.2327343382        3.5823437244       39.5987997099
  H        12.5893545771        4.3988978166       39.6255203786
  H        13.9033312254        3.9265210725       38.9187090659
  O         2.6003045803       -7.0278991412       29.2372446477
  H         3.0751030902       -6.7214765784       28.3964111611
  H         2.0758774132       -7.7524676676       28.7882980988
  O         9.2412571753       -3.2187460380       28.4778853058
  H         8.7048020666       -2.9876589924       27.6775985698
  H         8.9554820468       -4.1339927475       28.7578402316
  O         9.1550376996       -5.2268626748       30.9817946147
  H         9.5187403664       -6.0173919377       30.5217168845
  H         8.2224159547       -5.0421360052       30.7108905608
  O         0.2973922735        5.7007092953       32.3577352243
  H         1.1834811424        5.3801396247       32.2294447269
  H        -0.2950172091        5.1712728761       31.7619149559
  O        -2.5284757632        0.9424820672       41.3460467593
  H        -2.2400433319        1.1758035948       40.4147125261
  H        -2.0849921380        0.1108999773       41.3522798480
  O         6.4248202789       -3.1980991444       32.6031996191
  H         6.9332316132       -2.6914396821       31.9593399393
  H         6.2555770596       -2.5584236997       33.2679318508
  O         6.3905743917        1.4432052196       33.9305890924
  H         5.7246258946        2.1855755028       33.8369653675
  H         7.2333866222        1.7292109054       33.4098905173
  O        17.0468654299       -2.0062137397       36.1792363550
  H        17.1171332449       -1.4633455824       36.9802249196
  H        16.1318515498       -2.1951373271       35.9398600191
  O        13.0992281843       -4.6651671627       30.0509580019
  H        13.8203212028       -4.9938896563       29.4954211156
  H        12.7622806038       -5.4718869338       30.3508564438
  O         8.5845158552        3.1883648182       38.5682106746
  H         7.8725084968        3.2121997869       37.8476337862
  H         8.0796636009        2.5898590245       39.2295155440
  O         5.9985102896       -1.0700814287       34.2173479825
  H         5.9815791082       -0.1401525211       33.9776797963
  H         5.3009021228       -1.2789525125       34.9654365789
  O         9.2728894494       -6.6519835628       38.5737157976
  H         8.6341656863       -6.3217131506       39.3181258449
  H         9.2034099947       -7.6414736672       38.6758208857
  O        13.3343746182        3.7089925366       23.7064257800
  H        13.6401007040        3.2107074539       22.9344117614
  H        12.7489842810        4.4264790054       23.3289293624
  O         2.7880024834        4.1129180485       37.7825908743
  H         3.6320925131        4.2693494080       37.2447679202
  H         2.0974244566        4.2055220338       37.0805618900
  O        13.0696465219       -0.2618961807       37.8731568175
  H        12.4159196099        0.2046842550       38.4121907501
  H        13.4582275306       -0.8549882964       38.6134063257
  O         4.9544055484       -9.4625704148       29.0091200595
  H         5.0025853629       -8.4794514674       28.9087076892
  H         3.9929262550       -9.7142379175       28.8644667186
  O         2.5750369486        1.8282094993       34.7006733862
  H         3.3327585692        2.4603170610       34.3502627228
  H         2.7242157581        1.4804479748       35.6602326791
  O        12.5278308162       -4.2456376985       23.9413320177
  H        12.9257358503       -4.1832520310       24.8631239934
  H        13.1190597610       -3.7070365640       23.3583270328
  O        10.7081433365       -9.7233590929       43.2852931767
  H        10.4787496484      -10.2922460283       42.4647090394
  H         9.9076342197       -9.7309079369       43.8006644600
  O        11.4092371631       -1.8130089645       28.9069297629
  H        10.7965423919       -2.5912519391       28.6868571273
  H        11.5378668554       -1.7372972529       29.8929811276
  O         5.6938450839       -5.9219049470       32.6106833262
  H         6.6027441229       -6.2587442200       32.5717036717
  H         5.8243372568       -4.9472965075       32.5615862347
  O         3.2278713564      -11.2040839106       37.4226882188
  H         2.4591581403      -11.5970989052       37.8670771578
  H         3.1662413414      -10.2143609302       37.6499436692
  O         2.2114413173       -2.8752762784       34.8977086349
  H         1.5190858728       -2.0953775551       34.7816299100
  H         2.3719366896       -3.3413985708       34.0299562965
  O         1.1633266636       -1.8715723328       39.8487092520
  H         1.8838991868       -1.6396849884       40.4604814683
  H         0.2878146185       -1.7536187653       40.3241928156
  O        10.8595674330       -7.2041502096       30.0458065841
  H        10.9668009829       -6.8663777687       29.1119684995
  H        10.5875465068       -8.1900495754       30.0010661757
  O         3.1617983219       -0.6862477572       29.0275280432
  H         3.2455491968       -0.7135398534       30.0307430813
  H         3.0654611611        0.2771213051       28.8653174436
  O        16.0276563330       -1.5429472438       31.7752333843
  H        15.8989505050       -2.5442570822       31.7221342218
  H        16.7474107406       -1.4322311711       32.4454540812
  O        14.5961351464        1.9738681312       28.8656998228
  H        14.0427555066        2.5107689618       28.2738301479
  H        14.2530175289        2.1227671488       29.7905374344
  O         9.5117271684       -8.5453696252       34.7237652443
  H        10.3779404200       -8.2505684897       35.0155200429
  H         9.3138542045       -7.8021433785       34.0444870039
  O        11.7348120455       -1.4245093644       31.6090712106
  H        12.4641052261       -0.8737773639       31.9338133322
  H        11.8541013565       -2.2922359205       32.1300098126
  O        11.6764915245       -6.6445062768       39.8194910795
  H        12.2714181021       -5.8456647442       39.6395951440
  H        10.7785319180       -6.4828674915       39.2554084192
  O        15.7675997576       -6.8652472886       31.8948566107
  H        16.5950034289       -6.4302016211       32.1924362239
  H        15.8154623936       -7.1023178655       30.9496860586
  O        -2.5550636967       -1.5285666181       22.7840268261
  H        -2.9667345031       -1.0676312891       23.5839790001
  H        -1.5784076552       -1.2693308508       22.7705682985
  O        10.8906784570        1.7758580033       38.8403581868
  H        11.5823365905        2.4134846992       38.9063536059
  H        10.1468982368        2.3719030594       38.5976706014
  O         9.3473779255       -0.7592415769       45.1090439150
  H        10.2365376077       -0.8793322193       44.7439137931
  H         9.4455372886       -1.0845283946       46.0381820871
  O         6.7819492069        3.6288187618       31.3574599261
  H         6.2228885535        2.8301679785       31.1962459536
  H         7.6756749484        3.2263789142       31.3513325784
  O        13.6477719447        2.2832503716       31.3190851453
  H        13.6747476436        1.6510363288       32.0875912172
  H        12.7204998600        2.4154191057       31.1196662276
  O        20.2190628820       -1.7311797015       30.5547459082
  H        20.9835541954       -1.4946119449       31.1455793890
  H        20.6164247301       -2.3364605840       29.8630834954
  O        11.6450675353        1.3453303839       33.5378643691
  H        11.2160496787        1.5437436286       32.6170256063
  H        11.0528029204        1.9981491949       34.0490817522
  O        13.3513538905       -4.5583638702       38.9919007265
  H        14.3378102546       -4.9151980956       38.9965532590
  H        13.3607130725       -3.5731660805       39.3175883112
  O         4.4699654487        3.4748127643       33.7612658542
  H         4.6798575715        4.1032856429       34.4496513949
  H         4.1270747782        4.0211631034       33.0351575023
  O         0.1034628838       -0.9785663144       35.1664273346
  H         0.2878863651       -0.2805199710       34.4920466682
  H         0.2636815936       -0.6006040127       36.1112602446
  O        17.5647140557       -3.9571032504       30.1095465348
  H        18.0322751493       -3.6615026136       30.9644708887
  H        17.8716129385       -3.2696294184       29.5004828968
  O         8.3468274083       -4.3784066420       34.7871925599
  H         7.7509257207       -3.6996163487       34.3348095471
  H         9.0233243890       -4.1578757867       35.4716842781
  O         1.5696493684       -0.3433691341       32.9793592819
  H         1.9876518865        0.3905928479       33.5555733112
  H         2.3452462083       -0.8605060939       32.6810598442
  O         7.2789823827        1.7256459332       40.4321997313
  H         7.9174554551        1.1821900277       40.9786661429
  H         6.4972313411        2.1642226282       40.8862989742
  O         8.8055110707        1.9414439542       32.9101639167
  H         9.3480908813        1.0707719165       32.8489871149
  H         9.2995728726        2.5017072373       33.6258088363
  O         7.8347417687       -5.7068164791       40.7036930620
  H         7.1896435860       -5.0192232919       40.4269196811
  H         7.2057929944       -6.2544323497       41.2162437971
  O         3.4921734699       -5.5319290094       39.5019230718
  H         3.9989681793       -4.6904777338       39.3836453770
  H         3.8085767671       -6.1476484816       38.7770236142
  O        -0.3423003043       -6.7135960828       35.1921331806
  H        -0.1445124137       -5.8913671293       35.6693592445
  H         0.0204812050       -6.6092376214       34.2586314860
  O         7.1517570130        3.2514319642       36.0847383100
  H         6.9053424699        2.5082953571       35.5163983403
  H         7.9880784480        3.5451625580       35.6625991381
  O         8.0276097151       -2.5182866889       38.4214097318
  H         8.5802958163       -3.1449405925       37.9213178070
  H         7.8269033645       -1.7399324031       37.8349095151
  O        19.1770816310       -5.3213194940       24.6900291464
  H        19.6552618065       -5.0128502125       23.8658072719
  H        19.8528926550       -5.8979607709       25.0926501711
  O         5.9972222212       -4.0444750823       27.0744835442
  H         6.5289824541       -4.2105565407       26.2516244588
  H         6.0745905920       -3.0296232110       27.1334665760
  O         5.7602998521       -6.8142740399       29.5918729375
  H         6.1228100932       -7.2959527933       30.3502611709
  H         5.3006127323       -6.0581851834       30.0734842707
  N        11.3926809274       -3.6812769008       32.9604696956
  H        12.0526088916       -4.4653354595       33.0448130830
  H        11.0930716893       -3.4946368985       33.9311282105
  H        10.5708745731       -4.1723875986       32.5235780104
