     193
 CELL 12.4294 12.4294 12.4294 90.0 90.0 90.0 i =    31320, time =    15660.000, E =     -1096.5231653463
  O        -3.3415220539        0.6285765460       12.7305699105
  H        -2.7669709203        0.0202551043       12.1643811381
  H        -4.2547749992        0.5687976406       12.4698903064
  O        -0.2505719361       -8.4544694610        8.7020633354
  H         0.2675320009       -9.2945871398        8.8670678596
  H        -0.4765774160       -8.0339699836        9.5506310557
  O        -0.8556762499       -7.1158047186       11.3835483319
  H        -0.8868474598       -7.9085075712       11.9898188568
  H        -1.7323590231       -6.6891465509       11.4242704966
  O        -1.5679899183       -0.2183291098       11.0962003522
  H        -0.9679350848        0.5183494465       11.1399847013
  H        -2.0002657552       -0.1645566232       10.2175570628
  O       -11.3876095790       -4.3859198051        6.9802803556
  H       -12.2369501181       -4.0416803097        7.3374302288
  H       -11.3385001487       -4.0230758699        6.0158219621
  O         4.0088003929       -5.4379719516       15.9449959527
  H         3.8343769599       -5.3185362552       14.9949350068
  H         3.3065927458       -6.0870743516       16.1908505458
  O        -3.1886394108       -0.4193251053        2.8772255406
  H        -3.7238417630        0.1890448283        3.4219030727
  H        -3.1247045716       -0.1149827430        1.9587985123
  O         3.1254312402        4.0533673409       12.2611642821
  H         2.2092747542        4.2113058077       12.4537392457
  H         3.3576970453        3.5143756099       11.4426279934
  O        -4.7728830752       -7.7417399278        0.5710261813
  H        -4.8743283458       -7.7535951726        1.5433772960
  H        -5.6258130857       -7.5013315614        0.2325788769
  O        -1.0150800043       -1.5612411849        3.5150842585
  H        -1.8408091625       -1.1128642465        3.3420754697
  H        -0.6626810587       -1.9769603556        2.6629622658
  O        -0.3084060471       -5.1355205848        2.5059757936
  H         0.4713586807       -5.0017898729        3.0367214473
  H        -0.9786526830       -5.3691786208        3.1867753713
  O       -10.4336724772        5.1982487061        4.2285168571
  H        -9.9600962536        4.4212429194        4.5189997281
  H       -11.2007570694        5.2215890685        4.9357958585
  O       -10.4738941186       -2.7410956387       11.7997759727
  H       -10.4474506584       -1.8386440414       12.1624865434
  H       -10.4420290825       -2.7465776637       10.7830156074
  O        -2.2410922292       -3.3551921007        5.3578227011
  H        -1.8662148652       -2.8442044932        4.5627825557
  H        -3.2699328364       -3.0288020153        5.4799200375
  O        -2.1512339154        0.9938022828        6.5632056896
  H        -2.4332836160        1.9314769948        6.7325841450
  H        -1.6323379790        0.9568552097        5.7199141304
  O         8.4770708622       -0.0407740420        9.3683019314
  H         8.2509733017        0.0075212882        8.4210712738
  H         8.6236734632       -1.0049575204        9.4227804309
  O         3.7569881144       -4.3449822589        0.6415600762
  H         4.2290141004       -4.9937318156        0.1404754503
  H         3.1689682288       -3.8573674669        0.0072741169
  O         0.4358281950        1.3152840682       12.0414477015
  H         0.8942896005        0.7198261318       12.6846447298
  H        -0.0598825041        1.9712124086       12.6811667549
  O        -0.4086147692       -0.3568418410        8.4221820621
  H        -0.9134729014        0.0862167437        7.6984211737
  H         0.2833280453        0.2701965964        8.6299082194
  O        -3.3895283389       -5.8636439347       11.4478510058
  H        -3.2358996297       -4.9911393221       11.7956354859
  H        -3.8606523843       -6.4867265103       12.0540472477
  O         3.6888912674        3.0669653661       -2.6760583028
  H         4.6215574271        2.9133537103       -2.8704826066
  H         3.4915276837        4.0728454805       -2.9207937581
  O        -3.9956855520        2.5383502995       10.2046250452
  H        -3.9058365141        1.5281208496       10.0876329792
  H        -4.1908432375        2.7292488557       11.1596341142
  O         4.6332414007        0.0892802394       12.2546563944
  H         5.3342028056        0.7045436700       12.4581623322
  H         4.7799069134       -0.7295526600       12.8364727464
  O        -5.5283638243       -7.5306572292        3.0854866035
  H        -5.8413749599       -6.5531842238        3.0643467144
  H        -5.2177236549       -7.6299968993        4.0715043626
  O        -6.1982813089        2.4902793812        6.1733484218
  H        -7.0106519024        2.6019124295        5.6272227009
  H        -6.2640092471        2.8353178711        7.1401490472
  O         5.3528980735       -6.4982153666       -0.4325409299
  H         4.6292164694       -7.2155676748       -0.3152167740
  H         5.5412996405       -6.5234286604       -1.3968616270
  O         2.2051826896      -12.6042375353       13.5019783468
  H         2.1441365978      -12.3435595346       14.4325189310
  H         3.1214022544      -12.3563719836       13.1604443119
  O         1.3905009734       -3.7607594208        4.3592193184
  H         1.1557266099       -2.8126731259        4.2090514055
  H         2.3608023122       -3.7756786800        4.2414049198
  O        -5.9256625317       -5.7340239242        6.5111213921
  H        -5.6078602179       -5.3117503637        7.3049784605
  H        -5.2605115880       -6.4116852383        6.3755154855
  O        -5.7677652204      -10.5509512713       13.0668170659
  H        -6.5509662360      -10.1993735217       13.4998257288
  H        -5.0903337072       -9.7727099108       12.9546937244
  O        -5.5267922780       -3.8878382396        8.5340517301
  H        -4.7879874949       -3.3681679471        8.9258640385
  H        -6.4505704063       -3.6778781250        8.9789165169
  O        -7.1740209249       -2.1437440896       13.5686507779
  H        -7.5853056237       -3.0688584285       13.5550476789
  H        -6.2726360639       -2.1379871554       13.9761104286
  O        -1.5557138440       -9.5594237343        3.9304380251
  H        -1.4370400226       -8.6168389698        3.6519324750
  H        -0.7433834838      -10.0514329089        3.6515960762
  O        -4.6657249941        0.1461009637        6.6508400887
  H        -5.2478057121        0.8502629986        6.2365903283
  H        -3.7307393068        0.4240182045        6.4597438524
  O         6.5710806440       -4.5677448331        4.0129497496
  H         5.7208200940       -5.0429542158        4.0845282026
  H         6.9904161647       -4.5934995165        4.8767662230
  O         4.5916196303        3.1115177089        2.0882932702
  H         3.9578230821        3.5642624397        1.5020085131
  H         5.1747825584        3.7424481616        2.5342507263
  O         1.3529972235       -5.4553475842       10.8050923878
  H         0.4935327548       -6.0177990313       10.8328852650
  H         1.1291116821       -4.5685021186       10.4441146484
  O         3.1723202768       -1.4794897392        3.8215132541
  H         3.4776337358       -1.7577795647        2.8799173043
  H         3.7005323149       -1.9597186987        4.5395169255
  O        -0.2371376038       -2.8167902032       13.5045765967
  H         0.6369190974       -2.9911668691       13.1700210529
  H        -0.4236612640       -3.6502800619       14.0860999042
  O         3.7198376683       -5.6786532579        6.7081886464
  H         4.7167987127       -5.9073325146        6.6819060315
  H         3.2728684113       -6.3052584204        6.1157207213
  O        -8.0591314950       -4.0697816454       -2.7251619863
  H        -8.8216224342       -3.5352722346       -3.0148400326
  H        -8.3070493731       -4.9965467807       -2.8845344248
  O         0.6830623648        4.7162847639       13.9839911458
  H         0.3613330412        5.6641164321       13.8936181848
  H         1.0434348127        4.6345231841       14.8897942878
  O         0.5345923785        0.9078848294       16.6094551166
  H         0.2375296631        0.0533982401       16.3855950628
  H         1.3071408292        0.7904984512       17.2444120883
  O        -4.0974401687        4.7412696552        5.4709763890
  H        -3.2762772152        5.3235561220        5.2421338456
  H        -3.8068720868        4.3117242693        6.2812681399
  O         3.6476781974        2.9567719971        4.7413668239
  H         3.2796490298        2.0720138045        5.0389876012
  H         3.6673562051        2.8585085770        3.7070537942
  O         8.2026937373        1.7158207099        4.0586801669
  H         7.5868189770        2.2166021208        4.6607370255
  H         9.0541971654        2.2270406801        3.9870247751
  O         2.6712237948        0.3732164942        5.5989191147
  H         2.9276785669       -0.2942993287        4.8906745074
  H         3.0043754919        0.0452195061        6.5150328101
  O         5.5362241284       -0.8004726096        9.6981997319
  H         5.2581717062       -0.4375435001       10.5760492714
  H         6.4125220601       -1.0722691591        9.6937611133
  O        -2.8489608392        3.3677837569        7.5976532807
  H        -1.9633667894        3.6049291061        7.9807798992
  H        -3.4487971155        3.1852535382        8.3152920884
  O        -9.1798005741       -0.2699763314        8.1882887592
  H        -8.3659526752       -0.1555426156        8.7016643993
  H        -9.7949114423        0.3246511290        8.6646057922
  O         7.7292456194       -2.7195645148        2.1807579545
  H         7.2691522314       -3.4418716474        2.7434898688
  H         8.2116994285       -2.1070838525        2.7904109886
  O        -1.2976796720       -2.9952879348        7.9071297480
  H        -0.8978434729       -2.1360389436        8.0847414201
  H        -1.7500325737       -2.9797590981        7.0377516001
  O        -4.8516973181       -2.4461685029        5.7073054873
  H        -4.9273338933       -1.4456664366        5.8449572636
  H        -5.3047708902       -2.6618625722        6.5375011628
  O        -1.8634457476        2.6528353608       13.3146823817
  H        -2.0618026649        2.9931110870       14.1807005774
  H        -2.5583481954        1.9418630872       13.0626090477
  O         0.3406558794        5.5704139264        6.4057585890
  H         0.7882281002        6.3522388450        6.8031084790
  H         0.2422522896        4.9119034854        7.1497616757
  O        -2.9345397510       -3.2196268268       12.3833234534
  H        -2.2668381975       -2.6721358266       12.8307379640
  H        -3.6348489305       -3.0805510671       13.0736155896
  O        -3.2819844280       -2.6996100978        9.7211588894
  H        -2.4495125876       -2.9881354363        9.2804234830
  H        -3.1747730337       -2.7159615915       10.6890994065
  O        -9.1458092328       -6.5988122989        9.2633804177
  H        -9.8544551779       -6.3382132747        9.8514076902
  H        -9.4099855603       -6.1879522909        8.4308967303
  O         1.2230409455        1.8192963980        9.3208021880
  H         1.0816613539        1.7159630450       10.2754015226
  H         2.0866927239        2.2820320028        9.2020900992
  O         1.7022423103       -2.8371828479        8.9986811723
  H         1.4604813858       -1.9232082774        8.6594686320
  H         1.6006078101       -3.4751781056        8.2047969076
  O         6.3347842134       -8.8794306284       -3.7289738811
  H         6.2970778752       -7.9055219661       -3.5470260723
  H         7.0202353995       -9.3006675611       -3.0928537938
  O        -5.6768409811       -6.2583338836       -2.7497675798
  H        -5.7656744713       -5.3303946743       -3.0506038603
  H        -4.8087897262       -6.1759170279       -2.3279767356
  O        -1.6398853378       -5.9664386512        4.8048066501
  H        -0.9694435335       -6.4196543608        5.3664783781
  H        -1.9000014328       -5.0695684928        5.2294508629
  N         4.2909533263       -2.8076514749        5.9140760722
  H         4.0028839642       -2.2376034333        6.7184001249
  H         4.2485136585       -3.8526720621        6.0830435951
  H         5.2335096810       -2.5744037751        5.6752040057
