     193
 CELL 12.4294 12.4294 12.4294 90.0 90.0 90.0 i =    42520, time =    21260.000, E =     -1096.5364268252
  O        -1.3548954190        1.4457008279       20.1667579463
  H        -1.0968182054        0.8802415386       19.3557825537
  H        -2.1851605248        1.8427273190       19.9194111043
  O         2.2418977923       -8.3479091961       15.4728341752
  H         3.0509245088       -8.9168538799       15.5880815661
  H         2.1855437436       -7.6613241912       16.1752985075
  O         1.6018577031       -6.6228584340       17.3999460141
  H         1.6707801557       -6.8907763398       18.3751287519
  H         0.7117211243       -6.1418922240       17.3929645771
  O        -0.0108036736        0.7320658667       17.3362335778
  H         0.8574208463        1.0679100230       17.6929456337
  H         0.1301852845       -0.1766052004       16.9012965868
  O       -10.3695265459       -3.9684914790       13.7852362981
  H       -11.1931310956       -3.3333144672       13.7354433620
  H       -10.0943683649       -3.8390153205       12.8480081326
  O         5.9940955301       -5.6713637680       21.5647349616
  H         5.6896893352       -5.2405459375       20.7907049878
  H         5.2496368744       -5.8537923333       22.1637607553
  O        -1.6834797468       -0.6707770084        9.6700521451
  H        -2.1998677002       -0.2563159324       10.3927431289
  H        -1.6014349863        0.0484138966        8.9495889291
  O         5.5532154756        4.6890764014       19.2993915232
  H         4.7227173457        5.3037711184       19.4139525857
  H         5.4780176945        4.1090113888       18.5043207674
  O        -2.7024265169       -7.1935437586        6.6524653961
  H        -2.0943237375       -7.4024603197        7.3940196804
  H        -3.2828507619       -6.4887921898        6.8682333438
  O         0.7482842564       -2.0396685136        9.8510365512
  H         0.2419812649       -1.2141574689        9.7621685376
  H         0.9956734852       -2.2899888542        8.9016395821
  O         1.8221782985       -5.0438471281        8.9345131840
  H         2.3138118961       -4.5947336391        9.6705786821
  H         1.3273032076       -5.6935108264        9.5614524107
  O        -8.5724262913        5.7676832935       11.0562303733
  H        -7.9233608173        5.2545586448       11.6395443270
  H        -9.1718840840        5.9805723018       11.7767945214
  O        -8.7641113714       -2.0591995500       18.3189979489
  H        -8.8220849437       -1.1027691473       18.7034511384
  H        -9.3183888748       -1.8622743187       17.4344996453
  O        -1.0020385652       -3.5899621760       10.9785858284
  H        -0.4976184602       -2.9449785032       10.3748341062
  H        -1.8796483166       -3.1560708641       11.0061306176
  O        -0.8474077945        1.2388475254       12.7710601144
  H        -0.7976079172        1.7449570969       13.6637812235
  H        -0.6688814363        1.9241499112       12.1127856211
  O         8.8012684088        0.6810987706       15.7376354097
  H         8.5982923618        1.3881721664       15.0520153081
  H         9.5641035339        0.1554398043       15.4145355913
  O         5.6747048920       -3.7114622426        6.7111639290
  H         6.2641293613       -4.1792589774        6.0561580954
  H         5.0464287190       -3.2189769631        6.1681791740
  O         2.3159774121        1.7738835055       18.2040068745
  H         2.9777511371        1.3948994157       18.8274921372
  H         2.0310709038        2.5960580982       18.7268456607
  O         1.2925421587       -0.2895023426       12.3827965931
  H         0.5194784366        0.3194064411       12.5978465087
  H         2.0713118131       -0.1488999772       13.0136783489
  O        -0.9635311904       -5.5549007792       17.7339647636
  H        -1.2756147268       -4.7484010899       18.1337969178
  H        -1.6173017734       -6.2448565483       17.9576897017
  O         6.2044782449        3.1486516441        4.4802226248
  H         7.1512214746        2.9232765926        4.6139244733
  H         6.2634749967        4.0049917820        3.9423663934
  O        -2.1636857268        2.6036317770       17.0365138200
  H        -2.7626797219        1.9180318677       16.6434212264
  H        -1.4434161808        2.0181680560       17.3313946417
  O         6.8549709088        0.3357267507       19.0977709205
  H         7.4725045494        1.0171794108       19.2083817861
  H         7.1407037592       -0.3978114483       19.7450683647
  O        -1.1271890819       -7.7562655003        8.7935967257
  H        -0.8223615865       -6.9039476752        9.2279707901
  H        -0.9106006401       -8.4879648501        9.4098074111
  O        -3.7792007727        2.6704507215       13.7404280052
  H        -4.2114771260        3.4722416589       14.1208836860
  H        -4.0382665700        2.6163620789       12.8446265228
  O         7.3066368003       -5.9479300303        5.5114288042
  H         6.7602953276       -6.6918668789        5.8510608090
  H         7.4721989970       -6.1910222398        4.6052431234
  O         4.1525047931      -12.1650901511       19.8315371060
  H         3.9810643944      -12.0866578563       20.8623996147
  H         5.1335273544      -12.2641242704       19.7170364811
  O         2.7369736077       -3.5455628682       11.2324930388
  H         2.2426349291       -2.7030780593       11.0684723099
  H         3.7018505369       -3.1619158492       11.1657520053
  O        -4.0780515968       -6.9759313904       11.8505167566
  H        -3.9102204779       -6.4343090495       12.6258326688
  H        -3.8727058151       -6.4079718004       11.1609945669
  O        -3.9064688394       -9.7891450967       19.4896901422
  H        -4.4125321366       -9.1401609368       20.0995988174
  H        -3.4322213623       -9.1287325683       18.9396338581
  O        -3.8662775794       -3.1435543399       14.7267822974
  H        -4.6975029444       -3.1133308150       15.2880017850
  H        -3.2457588679       -2.4349152988       15.1721856624
  O        -5.6198981012       -1.6926428491       20.9266860516
  H        -6.1519636998       -2.3981624763       20.3822785288
  H        -4.6388798649       -2.0822655652       20.9043081352
  O         2.5710431837       -8.9716420860        9.9189782410
  H         3.1438655388       -8.3215953812       10.3075147774
  H         2.9067651112       -9.8513269635       10.1007342619
  O        -3.1237830155        0.0916871708       11.8151111133
  H        -3.6955035122        0.7330083021       11.2794721908
  H        -2.5229856639        0.5836950273       12.3810842872
  O         8.5560812715       -5.0309336130        9.8536418861
  H         7.6430886262       -5.2667777441        9.5774331461
  H         8.4035984461       -4.1816748137       10.3690901779
  O         7.0548097658        3.6868667353        9.0337942432
  H         6.4764281067        3.9932786971        8.2739743444
  H         7.2706013239        4.5055806651        9.4941553755
  O         3.5421963382       -5.0900598575       15.9081374203
  H         2.8239863674       -5.4702603711       16.4384808523
  H         3.0211303279       -4.4740564171       15.3219851771
  O         5.5053256166       -2.2693604496       10.9864966809
  H         6.2316102026       -2.0752837670       10.4148916592
  H         5.8664177286       -2.9450162139       11.6561283019
  O         1.1709980761       -2.9120371403       19.7828945097
  H         2.0134410675       -2.5722818974       19.3332026648
  H         1.4340760886       -3.7709482734       20.1678924775
  O         6.0301992759       -7.8748330541       12.4673832585
  H         6.8918563838       -7.4587079696       12.1441168198
  H         6.0395595975       -8.8723537554       12.3814890708
  O        -7.4483717914       -2.4406272396        2.7436177966
  H        -7.8091770793       -3.0807938110        3.3665151900
  H        -6.9998667173       -1.7142960934        3.3085717833
  O         3.6300673452        6.4426713363       19.5029908730
  H         3.7827713804        7.2673108165       19.0369851204
  H         3.0588964983        6.6564715906       20.2233963935
  O         3.2928460360        0.7236179565       22.6083860104
  H         2.4846390111        0.2904920329       22.9648936437
  H         3.9833504677        0.5424550384       23.2807398547
  O        -0.7674771409        5.1748864636       12.8976305255
  H         0.1452434428        5.3914014956       13.0938074915
  H        -0.9705687818        4.5292810574       13.6173028550
  O         7.3177684624        1.8358711669       11.0817868661
  H         6.5046579055        1.3797956597       11.4105667579
  H         7.1875805466        2.3028676062       10.2045920754
  O        12.3668740701        3.2854962532       11.0711097957
  H        12.1976315299        4.0009947076       11.6773653693
  H        13.2828790044        3.3332375996       10.6935263297
  O         5.1221509255        0.1904655722       12.0979476592
  H         5.5321150426       -0.7026825415       11.9944963763
  H         4.7546174995        0.0433172394       12.9693941355
  O         6.5187040898       -0.8556922000       16.5832753857
  H         6.4932755782       -0.4160480685       17.4776240989
  H         7.3207348404       -0.4680311012       16.1263636605
  O        -0.6152995254        3.0826857387       14.8426035312
  H         0.1145216023        3.3198022392       15.4443642630
  H        -1.4010479326        3.0454357898       15.4868646436
  O        -9.0801455672       -0.2091324762       14.4421250962
  H        -8.4058332183       -0.9763090267       14.5791268113
  H        -8.8559508719        0.5879110563       14.9618262687
  O         9.4912216393       -2.7632616886        8.2712152140
  H         9.3526151403       -3.6034758496        8.6577445757
  H         9.8456166226       -2.2036651008        8.9550151207
  O        -0.1798762679       -2.5422187099       13.5937381274
  H         0.2240530967       -1.7176865323       13.1709973897
  H        -0.5149194785       -2.9689797863       12.7749447283
  O        -3.5179559641       -2.8154264526       11.5086855211
  H        -3.4914650793       -1.8463547640       11.4808915998
  H        -3.7211837589       -3.0432565098       12.4674568626
  O         1.4255421423        4.1576201504       19.8505929821
  H         1.8266441864        4.1064588008       20.7536145573
  H         0.4675294149        4.2598699549       20.0927978216
  O         1.7679421180        5.7279585448       13.2710392838
  H         1.6894844057        6.7044440027       13.4592100883
  H         1.8866477916        5.1668094847       14.1043631920
  O        -1.1297058850       -2.7201308292       18.3439487242
  H        -0.2034797527       -2.6995830750       18.7484101779
  H        -1.6642801121       -2.6142325667       19.1404651522
  O        -1.8732142170       -1.7113020889       15.8143449491
  H        -1.2908348329       -2.1106515003       15.1727049521
  H        -1.6197228613       -2.1680232439       16.6666263695
  O        -7.3126482106       -7.3260664474       15.3241248264
  H        -7.8486291064       -6.5431169352       15.4015207107
  H        -6.9092651939       -7.3638921336       14.4391032088
  O         4.2463330241        1.5655490787       16.1484964066
  H         3.6146419129        1.9897693248       16.7589090222
  H         5.1275998795        2.0362591668       16.4280555180
  O         1.6821143732       -1.4469450219       16.2002723644
  H         2.2181148557       -0.9577319987       15.5110263766
  H         1.3389570561       -2.1655995984       15.6937513223
  O         8.4135000460       -7.4962563621        3.1442951196
  H         8.9457476344       -6.7990656920        2.7442678409
  H         9.0014769202       -7.9477074682        3.8172804230
  O        -3.0211973505       -5.5436579495        1.5609349507
  H        -3.1293917434       -4.6961989644        2.0637188789
  H        -2.0814043309       -5.7753299848        1.4060075107
  O        -0.1305467594       -5.9136061813       10.5048046815
  H        -0.4170280247       -6.4417655367       11.3574013006
  H        -0.5248919324       -4.9571008794       10.6997059538
  N         5.7335827547       -4.3631245803       12.9987149347
  H         5.3790163657       -4.3359944921       13.9576569379
  H         5.1814237908       -5.1819187990       12.5806073340
  H         6.7019334172       -4.7107364210       13.0432282615
