     193
 CELL 12.4294 12.4294 12.4294 90.0 90.0 90.0 i =    72520, time =    36260.000, E =     -1096.4827407732
  O         2.6099625796       -2.3467388429       35.3436526426
  H         2.6537934737       -1.4210505758       35.0386701827
  H         1.8781037612       -2.4518124855       36.0305034449
  O         4.8572144394       -9.6087912402       32.5465787343
  H         5.5754024523      -10.2830666043       32.6583504612
  H         5.2241756953       -8.7241896046       32.8551658735
  O         8.3267813854       -4.8387621403       34.4267893903
  H         9.3178128297       -4.7019107107       34.1893927620
  H         8.3181582114       -5.6685758250       34.9753726197
  O         6.2254350476       -0.3651441138       32.9463266825
  H         6.3798956476        0.1340908292       33.7780479440
  H         6.2007411115       -1.2825525619       33.3873939702
  O        -4.9401119870       -6.7878522059       30.4853086388
  H        -5.4283971104       -6.0870051889       31.0622802660
  H        -5.1353499835       -6.6226703583       29.5139812000
  O        12.1013408129       -4.4399855087       41.9432459452
  H        11.9555574891       -4.4303207859       40.9876252964
  H        12.2273254487       -5.3481611277       42.2663349599
  O         5.1990520231       -2.0410857532       24.7157878333
  H         4.5958190669       -1.6220750451       24.1414871362
  H         5.9099695917       -2.3658289584       24.0626305026
  O        12.5105329912        2.8110316295       36.4349402945
  H        11.6352324812        2.3229639786       36.4265380505
  H        12.7535300304        2.9144233908       35.4687251197
  O         1.1118461503       -7.7228108943       26.2859938718
  H         1.9687006618       -7.3124578055       25.9877457207
  H         0.7516866598       -8.3128120666       25.5361053554
  O         7.2547929867       -4.0185622420       26.8993959862
  H         6.5209724295       -4.0087818110       26.2399041765
  H         7.3357821745       -4.9544446275       27.3044075552
  O         7.6701899364       -6.4012253586       27.6558236767
  H         8.6254174505       -6.6254359299       27.6372131221
  H         7.2956394781       -6.9683098597       26.9682539133
  O        -0.1079168723        5.0230929583       30.0555033560
  H         0.8108373497        4.7117631688       29.6708800241
  H        -0.7793648841        4.9636961306       29.3939717028
  O        -3.5739116819       -1.0493545979       37.0790028964
  H        -3.2510013489       -0.1690199065       36.7744905008
  H        -3.0509163451       -1.4314250708       37.7992447188
  O         5.1238153204       -4.3380051506       28.9496674578
  H         5.9092870516       -3.9726102044       28.5101279653
  H         5.0365243893       -3.8677890947       29.7622041473
  O         5.5933318247       -0.3571908796       29.8067329035
  H         4.8523645195        0.3434840398       29.8094482451
  H         5.8986421996       -0.3812454104       28.9032286815
  O        14.5199536350       -2.0709125337       32.2473355050
  H        14.7650044809       -2.3631338299       33.1579045350
  H        13.5841694995       -2.3535609115       32.1156154204
  O        11.9253117405       -5.5321445387       26.9878595914
  H        12.6317042974       -6.2776388202       26.8434331733
  H        11.3510190736       -5.5887380351       26.2289327261
  O         8.0572260795        2.6898036319       34.9180057735
  H         7.9951903993        2.6109677023       33.9161092783
  H         7.4020039541        1.9997326146       35.2600307725
  O         4.8473567247       -2.6276248667       31.5086824566
  H         5.2003981111       -1.8310758965       31.0086933854
  H         3.8159862988       -2.5125696707       31.5973250317
  O         7.8741266458       -6.9156099179       36.1382534553
  H         7.2839266281       -6.2808279878       36.6061401102
  H         7.6340169455       -7.8183924479       36.3048496765
  O        12.7391123521        2.7042437102       21.0601669670
  H        12.2425389275        1.9074839773       20.7704085967
  H        12.2001683941        3.4875831013       20.6949715749
  O         2.8454970458        3.0528786979       34.2564721121
  H         3.5218690124        2.8130199244       33.5123757565
  H         1.9958049218        2.9253631110       33.7502563955
  O        11.9263584797       -0.4111072601       35.6149137091
  H        11.1809057769        0.2220653224       35.9537242049
  H        11.7223791840       -1.2210570362       36.2332936416
  O         4.4678728022      -10.0086248039       24.4372208712
  H         4.1232967095       -9.6680845409       23.6030902469
  H         3.6776165792      -10.3988262207       24.8312515983
  O         1.4984450639        0.5679087073       31.3429732105
  H         2.1607453019        0.9086669077       30.6750016898
  H         1.9876061049        0.0303264358       32.0507022015
  O        11.0190920895       -4.7421377275       21.2952872573
  H        11.6283476314       -4.5566904103       22.0735771679
  H        11.1001193493       -4.0133882142       20.6408760537
  O         9.2625467852       -9.7856940944       39.1238212891
  H         8.3774093981       -9.4883441930       38.9433800099
  H         9.2109583769      -10.5213991515       39.7921022920
  O         9.6758951623       -2.9875525975       26.4157788501
  H         8.7812471200       -3.4727166450       26.4452160606
  H         9.9474493187       -2.6194628323       27.3421163389
  O         4.4826120420       -6.9030826135       28.1997574687
  H         5.1845042237       -7.4627486476       28.5890256042
  H         4.6296683427       -6.0011490759       28.5605362684
  O         2.0073927088      -12.2909515750       34.2774490630
  H         1.1329573383      -12.4436980311       34.7424013429
  H         2.5041029568      -11.5534862220       34.5939221380
  O        -0.8775109253       -2.7742395740       31.7694191822
  H        -1.3525259215       -1.9346643586       31.5687556264
  H        -0.7792055328       -3.1796313247       30.8730025604
  O        -0.1193609893       -2.4136918203       37.4367349275
  H         0.1521253387       -1.8720027885       38.1945425706
  H        -0.8621304852       -2.9347992545       37.7092467369
  O        10.3131416384       -7.5243513139       28.1941413266
  H        10.9559056295       -7.0500213827       27.6395423144
  H        10.0034652389       -8.3345513119       27.6705039373
  O         3.0026290624       -0.7880867208       26.6263431761
  H         2.9030200924       -0.3168540201       27.5064906341
  H         2.7984081015       -0.0196413666       26.0513658865
  O        14.9212810613       -3.3068708484       28.8225993802
  H        14.2958255807       -3.9207700207       29.3193894444
  H        15.7201248155       -3.8464291114       28.6926514947
  O        14.3605971156        1.4697861042       25.5095971755
  H        13.7612175280        1.8541353132       24.7918706011
  H        14.0600992919        1.8289719659       26.3686861792
  O         9.5097613089       -8.3817265577       31.2614649680
  H         9.9654449002       -7.9910305015       32.0979514726
  H         8.8575019116       -7.6846487816       30.9954114334
  O        10.3469666756       -1.8286798773       28.5580188943
  H        11.1962018108       -1.8392820171       29.0411008306
  H         9.7981596181       -2.4339330268       29.0437133893
  O        10.7742355814       -6.0960843248       37.1331014840
  H        11.1372980296       -5.5411356604       36.4441447789
  H         9.9753402654       -6.5395277361       36.7635506216
  O        14.6246969350       -8.1136416939       28.7639078151
  H        15.4566120542       -7.6353632431       28.4857443374
  H        14.0712456037       -8.2558619043       27.9567600065
  O        -3.9763840062       -0.1309448186       18.8954509469
  H        -4.7816728974       -0.3290590675       19.3637987461
  H        -3.2441961054       -0.1198428945       19.5036715141
  O        10.0512258047        1.6581431604       36.6416775530
  H         9.7535856774        2.0461814331       37.4732962293
  H         9.4390099000        2.0990710782       36.0076578018
  O         8.9692455534        0.7095739190       41.0540868856
  H         9.1656954729       -0.2260085274       40.8480416682
  H         8.5769095573        0.5414139477       41.9724053817
  O         6.4683176650        3.5670786574       26.1716996322
  H         5.8606249362        2.9635011036       25.6945105744
  H         6.2417779153        3.5074397909       27.1020180447
  O        13.3213806690        1.6803096075       28.2419669836
  H        13.0948552914        0.7472955466       28.3474352062
  H        12.7821313793        2.2219966753       28.8068061469
  O        18.6375836727       -0.7435533140       27.0256894540
  H        19.3000976761       -1.2522225271       26.5971148141
  H        17.7426592300       -0.9276317313       26.6381788310
  O        11.2637979970        2.2876464485       29.8664270802
  H        10.7679980139        3.0084542948       30.2788093147
  H        10.5734548015        1.6684356567       29.5541944154
  O        12.7076552146       -4.5826198892       35.7422850113
  H        13.4310420932       -5.2686919738       35.6242609085
  H        13.0392582730       -3.9767738286       36.4840492557
  O         3.5664717437        2.0344780057       29.8857208172
  H         3.3789837631        2.5174687897       30.7246190666
  H         2.9767853396        2.4058546655       29.2343569092
  O        -1.1637672813        0.3048705496       32.1146429118
  H        -0.8378760127        0.4960041695       31.1922416148
  H        -0.3010024598        0.0158258787       32.5223767408
  O        15.3474584663       -3.6300581697       25.9323226288
  H        15.0639470912       -2.8505014278       26.5117099177
  H        16.1659909436       -3.3138826384       25.4949264166
  O         6.7211342165       -4.8598544510       32.0708691849
  H         5.9792295358       -4.2386200174       32.3240716627
  H         7.4260664297       -4.7838738860       32.7992145217
  O         0.5837160817       -1.1110877441       29.3119904184
  H         0.7865336903       -0.7024135672       30.1986444782
  H         1.3692105510       -1.6860061935       29.1168553161
  O         6.2546252998        0.6482497423       35.6471954867
  H         6.6430711980       -0.0427667407       36.2145016649
  H         5.7210841059        1.1682397713       36.2629336458
  O         6.0306128483        3.5857906065       29.1026831076
  H         6.7167690906        3.8672609954       29.8052497537
  H         5.2795908599        3.1546934114       29.5729237572
  O         5.9392472820       -5.2633410033       36.9398550615
  H         5.5882856920       -4.9260612398       36.0985512852
  H         5.1934686455       -5.8153550613       37.2209874367
  O         2.1937026827       -6.7319534483       35.3311192621
  H         2.5659423596       -6.7457600085       36.2401527370
  H         2.4031736733       -7.6564300057       34.9841627439
  O        -0.9742549694       -7.3232811498       32.7036379596
  H        -0.9444433271       -6.3367915384       33.0590520666
  H        -0.5850744145       -7.2941662557       31.8086750173
  O         7.6157933898        2.3635556752       32.3007349348
  H         7.8764027404        1.5019951387       31.9379110035
  H         8.1658091725        3.0930271641       31.9093678476
  O         7.2939248202       -2.4471853309       35.2467546053
  H         7.6312052354       -3.3541697471       35.0716708301
  H         8.0642447361       -1.8899978211       35.7441376621
  O        18.2714298498       -7.3672393927       21.5617232695
  H        18.5130703360       -6.6306125456       20.9851004157
  H        19.0981120558       -7.4899373496       22.0523293602
  O         4.2818487306       -4.5448716133       22.1194002561
  H         3.7892633317       -3.8683191612       22.5570278102
  H         3.8117332985       -5.3881946955       22.3641399698
  O         3.4600527653       -6.1960785561       25.7546384309
  H         3.6963548382       -6.6916326733       26.6502432465
  H         3.0435787959       -5.3481224324       26.0474959005
  N         9.1982773249       -4.0042826405       29.8521130009
  H         9.3798752291       -4.6774417076       29.1100100850
  H         9.5070311126       -4.4067843106       30.7203819316
  H         8.2071997598       -3.8628190560       30.0195026211
