     193
 CELL 12.4294 12.4294 12.4294 90.0 90.0 90.0 i =    73720, time =    36860.000, E =     -1096.5025258063
  O         3.3192577661       -2.2065804955       36.2401670990
  H         3.0988111919       -1.2298799434       36.1566098424
  H         2.7867495264       -2.4731913828       37.0427107605
  O         5.2427342110       -9.0436522152       33.3545529372
  H         6.0365830797       -9.5997135736       33.1815885243
  H         5.6068496911       -8.1055686105       33.3386761478
  O         9.1163006330       -4.9013102717       34.5524214702
  H        10.0940718464       -4.9493159272       34.3672143763
  H         8.7906358380       -5.7681326107       34.7361242085
  O         6.5842092017       -1.1059929518       34.3488788124
  H         6.4992157577       -0.8019504858       35.2748538454
  H         6.3228208142       -1.9870627821       34.3517183904
  O        -4.3804970388       -6.5179701279       31.2469170543
  H        -4.5641316985       -5.5573711174       31.4154482732
  H        -4.3345188912       -6.6283467003       30.2420934325
  O        13.2565082293       -4.5551078521       42.6902193215
  H        13.1429042197       -4.7251230428       41.7266886172
  H        13.2537382029       -5.4683380201       42.9993483629
  O         5.5426294099       -2.5126196793       25.8208867111
  H         4.8308335779       -2.2536616705       25.1793718278
  H         6.2402560714       -2.8076068374       25.1242535971
  O        12.7779957271        3.7654782432       37.0973483441
  H        11.9506497869        4.2468595366       36.9971887906
  H        13.0964886704        3.6072900720       36.1757856373
  O         1.7237581189       -7.0304441228       26.4063544768
  H         2.6709667757       -7.0854936171       26.2235857132
  H         1.2048541074       -7.5736327055       25.7087122520
  O         8.3661208297       -3.8926429917       27.0842255226
  H         8.2146135255       -3.9329069405       26.1434533989
  H         8.2573043865       -4.8428988179       27.3817914486
  O         8.0350144202       -6.4614677064       28.3939290013
  H         9.0143305678       -6.8572753147       28.3626347576
  H         7.4493307198       -7.1771173342       28.0879932077
  O         0.5736989038        5.1290093865       30.1714571224
  H         1.3484356910        4.6473708246       29.6689489309
  H        -0.1960045297        5.2111888869       29.5090266686
  O        -3.8031439194       -0.7804806033       37.8649547734
  H        -3.2292082201        0.0380588607       37.5748272989
  H        -3.1957348651       -1.3084910947       38.3796217368
  O         5.1242277328       -3.5379062368       29.6408957131
  H         5.7190793743       -2.8813082329       29.1724004988
  H         5.2859593125       -3.2255439200       30.5577991080
  O         4.8366442922        0.1232564965       31.0342086195
  H         4.3054136997        0.9094680580       30.9195558894
  H         5.3246393193       -0.0179133452       30.2007890176
  O        15.1559725714       -2.0573641547       33.2223290218
  H        15.1988925334       -1.9439969804       34.2104698807
  H        14.2042921764       -2.3351354299       33.0987195180
  O        12.6916131457       -5.0595527785       27.5837583606
  H        13.2795910805       -5.5843150249       26.9308809374
  H        12.3140226226       -4.4310843451       26.9941025200
  O         7.4525447871        2.4287550062       35.8387893380
  H         7.3840315767        2.2076235999       34.8995153636
  H         6.9039358641        1.6916325654       36.3587860719
  O         5.2914798980       -2.4893089147       32.0941541462
  H         5.2238146427       -1.5388506621       31.9845254556
  H         4.4374843616       -2.6473665170       32.5467165317
  O         8.0572163658       -7.1573412948       35.9229446461
  H         7.3008905445       -6.7331690492       36.4815429627
  H         7.8938942889       -8.1066612021       35.9488197108
  O        13.5676019678        3.1266999526       22.0654022348
  H        13.4094318031        2.2004893049       21.7968009215
  H        13.0616740770        3.6670826632       21.3928654572
  O         3.9259892891        3.2303778341       35.7839610836
  H         4.5789855354        3.3760357869       35.0008028972
  H         3.1173592645        3.5579981735       35.3152969993
  O        12.4525226721        0.2839551942       35.4009631328
  H        11.8625763731        0.8088606279       35.9773160942
  H        12.3174791293       -0.6567815538       35.5459288505
  O         3.8374788913       -9.6470167221       26.1390343161
  H         3.8547893592       -9.2269659321       25.2917248479
  H         2.9346490822      -10.0255543401       26.3463607147
  O         1.6014248818        0.6892627525       32.6582303057
  H         2.2276018791        1.3175599928       32.2235693791
  H         2.1522594364        0.0748949577       33.1973462352
  O        12.0223932292       -5.1191455503       21.4738971085
  H        12.1496604999       -5.0051203164       22.4049341401
  H        12.2690908335       -4.2116005736       21.0490057306
  O         9.1729016746      -10.0559384428       39.6065438125
  H         8.2307066918       -9.9951812058       39.4892914479
  H         9.3288715094      -10.9972262528       39.8989251800
  O        10.6913909790       -2.5164665920       26.7051325443
  H        10.0227453850       -3.2523484080       27.0258906450
  H        10.8325376476       -2.0665763619       27.5810165126
  O         5.0985143700       -6.5263731519       29.4094962040
  H         5.8838853214       -6.8235269502       29.9085852147
  H         5.1506148489       -5.5133854202       29.4512283111
  O         2.9878761188      -12.0217288925       35.9491237504
  H         2.0259976720      -11.8307075206       35.8505600104
  H         3.4494130591      -11.1062499276       35.8968816093
  O         0.1014763058       -2.7716889756       32.5510228471
  H        -0.5338887533       -2.0126920735       32.5356462692
  H         0.4013164259       -2.9840628685       31.6294819338
  O         0.0764192311       -1.9734364258       36.7745404699
  H         0.7551075353       -1.4915833575       37.2850482440
  H        -0.6475033478       -2.1197389977       37.4983731781
  O        10.6047161549       -7.8351969270       28.3044320925
  H        11.0880225968       -7.4896452700       27.5166883329
  H        10.2979471576       -8.8032040924       28.1186039427
  O         1.9633590576       -1.0471558760       26.1973770957
  H         1.9542240097       -1.5366624342       27.0509610668
  H         1.6793870892       -0.1033969949       26.2387710309
  O        15.0367776487       -2.4826299914       29.5863880618
  H        14.4676750968       -3.1643023258       29.9216114126
  H        15.9578501142       -2.6781949193       29.8073974400
  O        13.6284177616        1.7850126437       26.6917671731
  H        13.1272016769        2.5379224646       26.1837740881
  H        13.4382290850        2.0239114692       27.6804490524
  O         9.5171296407       -8.6036069775       32.0997105794
  H        10.3940562023       -8.1841891586       32.4758472093
  H         8.8777807478       -7.9056435244       31.8118476594
  O        10.9814431326       -1.4644843026       29.1687556422
  H        11.6791782610       -1.0659143651       29.7309151861
  H        10.8177066028       -2.2904128275       29.6891956346
  O        10.6683514288       -6.7585038247       37.5432006673
  H        10.9464285441       -5.8998644156       37.0967103749
  H         9.7902857224       -7.0477322724       37.1946722173
  O        15.2099560328       -8.3507119816       29.0730516277
  H        15.8013577630       -7.6246604799       29.2289617342
  H        15.1326293611       -8.4215929727       28.0882766236
  O        -4.3826366591       -0.5533102162       19.4915502653
  H        -4.9006579746       -0.7325992866       20.2706620134
  H        -3.4580172674       -0.7818583826       19.7356802602
  O        10.0246886547        1.3485498341       36.9880285343
  H         9.9314785646        2.1242034142       37.5567106581
  H         9.2708042652        1.5301699885       36.2887532303
  O         8.5511520435       -0.0356299461       41.6023357565
  H         9.2942784245       -0.6839759186       41.7110954682
  H         8.2222896503        0.0694694244       42.5043717861
  O         6.4651223397        3.5294520281       27.3415633598
  H         5.6603072130        3.1402975106       26.9213042312
  H         6.3357212372        3.4622155812       28.3502978788
  O        12.9717861606        2.1143704031       29.2313432832
  H        13.0634757347        1.1672476896       29.6144857171
  H        12.2640836422        2.5901404974       29.7397160954
  O        18.5901287918       -1.1722693224       28.4710164819
  H        19.5031991372       -0.8129705406       28.6549597490
  H        18.6444833217       -1.7533370928       27.7033432533
  O        10.5261994617        1.5171341525       31.1017660146
  H        10.0930944996        2.3544429354       31.4484727321
  H        10.1143211419        1.2399812890       30.2425230550
  O        12.6647795784       -4.6947638159       36.6726644520
  H        13.5455597957       -5.1243366606       36.5162355654
  H        12.7750816980       -3.6603084908       36.8275561876
  O         3.3382250447        2.4774628725       31.5581823365
  H         4.0401111656        3.0548848914       32.0687738849
  H         3.2757981590        2.8289772013       30.6260453832
  O        -1.7057476899       -0.6656994977       32.5974060774
  H        -1.6545082802       -0.1381494012       31.7772340725
  H        -1.3858948279       -0.0925975954       33.3244575616
  O        15.9671447266       -3.9388783183       26.9025323710
  H        15.6547187208       -3.6824480313       27.7991344729
  H        16.7912383762       -3.4156270527       26.7007818658
  O         7.6235652065       -3.9832415013       32.3978910841
  H         6.7945620032       -3.4935978059       32.5952945128
  H         8.0666600642       -4.1748608172       33.2581083516
  O         0.9321404953       -0.4410967070       30.2293189885
  H         1.1473959399       -0.1740334476       31.1332624258
  H         1.5515758313       -1.1778835085       29.9618367146
  O         6.0804857684        0.3695030384       36.9610155442
  H         6.7634418306       -0.0307260639       37.5308652488
  H         5.3260846761        0.5737941521       37.4858225712
  O         6.2708436041        3.0984807653       30.2325146156
  H         6.8694379947        2.5868351409       30.8568708563
  H         5.4029145732        2.9956107044       30.5429066416
  O         6.3509208081       -5.5906701042       36.9277575371
  H         5.8464411781       -5.0448614471       36.2769478864
  H         5.6975103036       -6.0812235086       37.5266218338
  O         2.8411843786       -5.6995522059       36.1653973950
  H         2.7850643867       -5.5105742725       37.1163774974
  H         3.3127710935       -6.5309721439       36.1159147110
  O        -0.4622304239       -7.6556330042       32.8383349150
  H        -0.3182461977       -6.7240469119       33.2229515552
  H        -0.1102877717       -7.6167643471       31.8962231074
  O         7.6002618266        1.8320024417       33.1136576727
  H         7.8196471265        0.9825987455       32.6218837444
  H         8.1824877699        2.5944171376       32.7509393032
  O         7.8259578663       -3.0361877754       36.7438547125
  H         8.4780880943       -3.6084759823       36.2558168221
  H         8.1349244347       -2.1429783765       36.8341150343
  O        18.5138944680       -6.4034846661       21.3402804823
  H        19.1126391332       -6.0105547708       20.6422529593
  H        19.1673481436       -6.5068303507       22.0459443665
  O         5.2941783800       -3.6903467458       22.2126452656
  H         4.4306991659       -3.3999522389       22.6422937304
  H         5.1822910953       -4.6186661011       21.8099752987
  O         4.4951274897       -6.4734816981       26.4580977949
  H         4.8904953965       -7.0911823526       27.1662882105
  H         4.1593195445       -5.6841487738       26.9444807868
  N        10.2633397394       -3.6954451298       30.8522476178
  H         9.2356645360       -3.8779986285       30.9849087445
  H        10.6827585147       -4.6120849786       30.7209972728
  H        10.4977834829       -3.4204196243       31.8175152441
