     193
 CELL 12.4294 12.4294 12.4294 90.0 90.0 90.0 i =    47320, time =    23660.000, E =     -1096.5183441397
  O        -0.0706722900        0.4998736854       22.7001488297
  H         0.3257555424        0.1658821139       21.8705065084
  H        -0.8144517481        1.0574614482       22.3707578767
  O         3.3342500035       -7.5125388770       17.8928486348
  H         3.8773940785       -8.3191474515       18.1322623097
  H         3.0228719962       -7.0757580342       18.6998195143
  O         2.3325731564       -6.0335334963       20.1771975428
  H         2.8172578203       -6.3792596468       20.9548061775
  H         1.4186589940       -6.0756044625       20.4838023657
  O         1.4551278091       -0.4982472866       20.2766161499
  H         2.0704734396        0.2761595875       20.4577743819
  H         1.6322920378       -0.5067461965       19.2827003313
  O        -9.3379602510       -4.2284340290       16.0098877219
  H       -10.2399133845       -3.9165968543       16.0859715259
  H        -9.0030942124       -3.8598471349       15.0926501943
  O         6.3729894637       -5.0300601500       25.0587895783
  H         6.2437234525       -5.0483137753       24.0629506153
  H         6.1993129315       -5.9200935106       25.4409643196
  O        -0.4575709437       -0.6433029566       12.5991203735
  H        -0.7937790581        0.0487537313       13.2841808023
  H        -0.3043672551       -0.2943238493       11.7132215183
  O         5.9949044705        3.8452592608       22.6492820240
  H         5.0493568629        3.9531445551       22.8796289447
  H         6.0106991612        3.3467280878       21.7890570905
  O        -2.8265812183       -7.5631893499        9.2481613729
  H        -2.7346011656       -7.5027551849       10.2192019287
  H        -3.7353101759       -7.2738431755        9.0173319081
  O         1.8705147015       -1.6271807002       12.4295730040
  H         1.0678485711       -1.1345571450       12.7514822928
  H         1.5924023777       -2.0533114246       11.5780679468
  O         2.2438082954       -4.7427251054       11.4061572507
  H         2.8379294249       -4.4354019225       12.1979051283
  H         1.4410459048       -5.1506569161       11.8461694555
  O        -6.8485948566        5.0918692444       14.0642975113
  H        -6.1132536420        4.7794792244       14.5474175009
  H        -7.5836159367        5.2309403588       14.7923635737
  O        -7.5603643812       -2.3466034716       20.8074372290
  H        -7.8654791910       -1.6191076921       21.4335337932
  H        -8.3429553261       -2.7775611040       20.3920656426
  O         0.0663457157       -3.5485656418       14.4591243520
  H         0.6569289453       -3.0134292603       13.8557007675
  H        -0.7361140147       -3.0105575273       14.5514989756
  O         0.0181289394        1.5755655783       16.2314957556
  H        -0.0516806317        2.5551377904       16.5592071433
  H         0.6721722653        1.8791351269       15.4942896831
  O        11.0215907384        0.9308089858       19.4193082463
  H        10.7464670463        0.9738134595       18.4418870836
  H        11.3340331755       -0.0139375586       19.5336369409
  O         6.2631574971       -4.6720463593        9.5738443063
  H         6.7293104620       -5.1022764670        8.8468243322
  H         5.7425188272       -3.9555535475        9.0756879990
  O         3.3300278405        1.4136623439       20.5637493988
  H         3.9294003087        0.7794404461       21.1233500533
  H         2.8911172999        1.9405078004       21.2630920274
  O         1.6845602237       -0.2241486205       17.5146486601
  H         1.0864467897        0.4957104197       17.1184293559
  H         2.6374260321       -0.0464667686       17.2218829571
  O        -0.4116839772       -5.9187264397       20.4339715374
  H        -0.7411728935       -5.2763481073       21.1598134086
  H        -0.6931380490       -6.8895707413       20.6192210757
  O         6.6105211015        2.8254436590        7.5498508898
  H         7.2520189468        2.0950942188        7.5645591830
  H         6.7824649302        3.5395021768        6.8730586278
  O        -0.1252834669        3.3038341720       20.4716278293
  H        -0.2594019276        2.4495454865       20.0101252950
  H         0.5094245454        3.1431406411       21.1602126919
  O         7.5103749396        0.0110197444       22.9602272067
  H         7.6710032527        0.6473168590       23.6937908250
  H         7.5268362773       -0.8717612162       23.3551372788
  O        -2.2312181128       -7.8462585876       11.8131708376
  H        -2.3314637960       -7.0141635809       12.3574136141
  H        -1.2380855051       -7.8999556140       11.8194791174
  O        -3.3476609325        1.5012867897       17.5948137004
  H        -3.4553438073        2.4895317052       17.5649442299
  H        -3.6394182608        1.2597501515       16.7023040228
  O         7.8275212117       -5.8106657297        7.3661586228
  H         7.3903499130       -6.2170220106        6.6252997088
  H         8.5104385364       -5.2217211131        7.0488458092
  O         4.8461559683      -12.5349563962       22.1936481469
  H         4.5648326290      -12.2829541940       23.0812360546
  H         5.7765966917      -12.3251671163       22.2446357272
  O         3.8820513571       -3.2427831747       13.5501412411
  H         3.2774974922       -2.6225313049       13.1418399245
  H         4.9215920727       -2.9274128679       13.6038139853
  O        -2.2977656136       -6.8794839111       15.3202385429
  H        -2.0499821057       -6.4088061568       16.1565552329
  H        -2.5329864880       -6.1754498738       14.6790724804
  O        -2.2040340102      -10.5214612852       22.4737481398
  H        -2.8959521791      -10.7894296876       23.0996017926
  H        -2.5608318611       -9.7025873864       22.1200546951
  O        -3.8335826290       -2.8913846067       17.9141001130
  H        -4.7829417140       -2.5611265843       17.9102454957
  H        -3.3030996728       -2.2706980070       18.4603647681
  O        -4.5409928698       -2.5961128969       24.0394665702
  H        -4.9359324390       -3.0402200595       23.2969582375
  H        -3.5558751372       -2.6606851403       24.0719898912
  O         3.8097580162       -8.9821983469       12.3963303926
  H         4.2452569656       -8.6200298242       13.1817944409
  H         4.1706154901       -9.8838053116       12.4335987545
  O        -1.7617393715        0.4613225406       14.6114419668
  H        -2.6437644585        0.8620834831       14.2911968460
  H        -1.3225370588        1.0164593867       15.3513134957
  O         9.3585723539       -4.9731399274       13.3014748022
  H         8.4134019730       -4.9106158582       13.0568293496
  H         9.3458955231       -4.2779476260       13.9906764999
  O         7.8892558626        2.7447765620       11.8308562797
  H         7.1485708570        3.2920707712       11.4248417768
  H         8.6533143843        3.3627311077       11.9119426661
  O         5.0827029191       -4.9431304100       17.6839014844
  H         4.6661228252       -4.6269047109       18.5320833443
  H         4.3186617624       -4.6509085404       17.0837779405
  O         6.5041554010       -2.4414784758       13.9699702932
  H         7.0911501647       -2.4860141611       13.2254044119
  H         6.7537216814       -3.2678907517       14.6146314598
  O         1.9229953772       -2.4052381342       22.1611030382
  H         1.8752071918       -1.7772421817       21.3849795392
  H         2.4859512759       -3.1388327683       21.9293864410
  O         7.7223080117       -8.2352645560       15.7798943812
  H         8.5785430025       -7.6944072956       15.6137126465
  H         7.7841258088       -9.1183755826       15.3503409810
  O        -6.4203626379       -0.9829524657        6.0775246869
  H        -6.7785203006       -1.4255124001        6.8795865925
  H        -5.6891892933       -0.3910243342        6.5123490062
  O         3.8089442231        5.6321191377       22.6365296212
  H         4.6151196571        6.1093895520       22.3776743924
  H         3.3833900287        6.4267510684       23.0822184425
  O         3.8489861767        0.3243313831       24.6853779865
  H         3.1991360175       -0.4051655125       24.6473416261
  H         4.4781391140        0.1145373636       25.4720075438
  O         0.9880565451        4.7685073046       14.4910392009
  H         1.8544195962        4.8436887520       15.0147798512
  H         0.2648779775        4.6726245929       15.1344673331
  O         7.9678668757        1.7120272598       14.2806226558
  H         7.2294540737        1.0491531685       14.3137412743
  H         7.8756405702        2.1270345749       13.3659116668
  O        13.3451465515        1.9690943217       13.7614846542
  H        13.2160981962        2.9786192538       13.8055093979
  H        14.2887163316        1.7915392271       13.4397392579
  O         5.6579370910        0.1270921958       14.7147282965
  H         5.9718259498       -0.7453891730       14.8557898733
  H         5.2033513669        0.3567376806       15.5945417644
  O         8.1904513027        0.5849700483       20.0649298459
  H         8.1946710419        0.3128027609       21.0394188485
  H         9.1645473523        0.6230068349       19.8853785808
  O        -0.1516980005        4.0878129369       17.4240543903
  H         0.3413240315        4.2702541878       18.2181872263
  H        -1.0515785469        4.4357931628       17.6086849865
  O        -8.1179829829        0.4535987643       16.9849620219
  H        -7.7191960336       -0.1397084237       17.6873606953
  H        -8.1479460552        1.3887238710       17.4543508326
  O        10.6316196386       -2.7001297318       11.7510129216
  H        10.9277874197       -3.2627126338       12.4941336768
  H        11.1574287728       -1.8538714372       12.0867693497
  O         0.7372190759       -2.7713673030       17.1195228759
  H         1.1544767246       -1.8713425374       16.9543990005
  H         0.2247043346       -3.0633145966       16.3242517445
  O        -2.2415908060       -2.1828810676       15.2483981040
  H        -2.1777966017       -1.2269885402       15.1019576041
  H        -2.6586906430       -2.2537653743       16.0978951565
  O         1.9048108561        2.7243032852       22.4421369617
  H         2.4787282868        3.2261721557       23.0659793450
  H         1.4044675789        2.0692297232       22.9959060708
  O         3.3296340597        5.3791871303       15.4648445463
  H         2.9036186727        6.2967885226       15.5676815976
  H         3.4117517403        5.1613771419       16.4748664716
  O        -0.6084041471       -3.5502493606       21.6695481584
  H         0.2873434861       -3.4433538205       21.9627075490
  H        -1.1389736625       -3.3164723176       22.5120776834
  O        -1.3981550130       -2.2372359558       19.3553203220
  H        -0.5732826362       -2.4770773270       18.8761607968
  H        -1.2151153574       -2.5646692437       20.2637795835
  O        -5.6945154786       -7.2353068794       18.0429860258
  H        -6.4105684558       -6.5786825226       17.7758398990
  H        -5.3811255005       -7.6309287809       17.1919141989
  O         4.4524749807        2.6234541247       18.3690286571
  H         3.9628308622        2.2856869108       19.1609526085
  H         5.3255677001        2.7567538592       18.8394391277
  O         2.9353703229       -3.5954817839       19.4575336068
  H         2.4317309727       -3.2417048737       18.6610452309
  H         2.5012698642       -4.5156117573       19.7095639059
  O         9.7055167536       -7.9291845460        6.2133445348
  H         9.1142870169       -7.3218048550        6.7056144296
  H        10.1177529245       -8.4123167600        6.9352970690
  O        -1.6330584853       -5.2503796883        5.2456225977
  H        -1.9771654176       -4.3370899644        5.3709602197
  H        -1.1625761908       -5.3660257791        6.1058472419
  O         0.2817577384       -5.7074229007       12.7484839358
  H         0.7266222857       -6.4506465544       13.3017767394
  H         0.1687847819       -4.9889936886       13.3342271223
  N         7.2757506733       -4.3916517681       15.8251183134
  H         6.6353347366       -4.3446615374       16.7027560086
  H         7.1926093485       -5.3831090438       15.5829090161
  H         8.2798951555       -4.3741112614       16.0815397225
