     193
 CELL 12.4294 12.4294 12.4294 90.0 90.0 90.0 i =    83320, time =    41660.000, E =     -1096.5339071951
  O         6.1055955493       -1.2030475533       40.7686826502
  H         5.4544537165       -1.3257912863       40.0279644456
  H         5.5949758870       -0.9775861631       41.5917674892
  O         6.8801623656       -7.1478475161       38.6223853277
  H         7.4853888417       -7.9002405890       38.8345112735
  H         7.4989761914       -6.3839871566       38.8581303285
  O        11.3157649082       -3.7359087685       40.7321876079
  H        12.2177410914       -3.7374901954       40.2325539737
  H        10.9056359254       -4.6081428465       40.6664903224
  O         8.1636340564        0.4792973933       39.9891769628
  H         7.4628581905       -0.1774157886       40.3187696675
  H         7.8398238056        1.2909978303       39.6353190392
  O        -3.1159760092       -6.0818788674       36.5983745308
  H        -3.0051426848       -5.1949626727       37.0871780387
  H        -2.5764129351       -6.0667369482       35.7383547808
  O        15.9202541127       -3.5891539372       47.7767860274
  H        16.4355448934       -2.8597430790       47.4629458602
  H        15.4154287802       -3.9269431484       46.9764995222
  O         7.6822737405       -1.2038855925       31.4869943156
  H         8.0455593936       -1.6053999330       32.3381085559
  H         8.1331827434       -1.6331159601       30.7238889377
  O        13.8220972322        3.9840130865       41.9859676956
  H        13.5145400095        4.8978144490       42.0990097196
  H        14.0114698750        4.0510349167       41.0213257718
  O         3.7663835755       -6.9083734145       32.1365477970
  H         4.1518989219       -6.2960100335       31.4842495617
  H         3.6930551743       -7.7965622326       31.6519322755
  O        10.4103221901       -2.8542184636       32.1664404724
  H        10.4656089994       -2.1994874311       31.3956440467
  H         9.8179307713       -3.5811126229       31.7311116659
  O        10.1617558482       -5.5438481628       34.0843227344
  H        10.7769284368       -5.9636924027       33.4300118807
  H         9.2368720246       -5.8029569369       33.8097773349
  O         1.3036411191        6.4005579127       35.4213184392
  H         2.2744979577        6.1639761271       35.2392283107
  H         0.8423641983        5.8834138682       34.6792875050
  O        -1.6141782696        0.0780244539       44.3538917328
  H        -1.1495888795       -0.0597483057       43.5224526503
  H        -1.0449124705       -0.0484875912       45.1664114545
  O         6.9026650264       -3.0447339876       36.1881408235
  H         7.2407839680       -3.0216588407       35.2655612553
  H         6.8187391138       -2.0758414509       36.3146342206
  O         7.5313711361        2.5394642761       36.1769449265
  H         6.6393399732        2.8520299515       36.4747658898
  H         7.3729413324        2.8374310724       35.2282408924
  O        17.1922085837       -0.9604351556       38.5487219603
  H        16.6508820805       -0.1384446520       38.8523009240
  H        16.4377586312       -1.5412008444       38.1085972064
  O        15.1211860619       -4.2148949385       32.7085604472
  H        14.2331141658       -3.7949839194       32.4378999599
  H        15.1855523908       -5.1401376688       32.4253921052
  O         9.5404517739        3.4390097822       41.8622840320
  H         9.1518017704        3.2842176352       41.0068726302
  H         9.0483412707        2.8569202622       42.4433367760
  O         6.4864540744       -0.3981637427       36.3579739221
  H         6.9272652346        0.4951160823       36.2734048688
  H         5.8624884860       -0.2731167565       37.1299125329
  O         9.9071921581       -6.0803888236       41.5543627995
  H         9.5367534294       -5.4949079013       42.2597127366
  H         9.8949127262       -6.9977779127       41.8731803803
  O        14.7156115682        4.2803146997       27.0113279984
  H        14.6441730791        3.4315002172       26.5651888289
  H        14.1798300822        4.8685925603       26.3335812373
  O         4.8393207777        4.8219404256       40.2094482545
  H         5.4647188268        5.1745934400       39.5160915040
  H         3.9295737821        4.6767262885       39.7725599164
  O        13.4078088483        0.1934715549       40.8325941901
  H        12.8323904619        0.7322851263       41.4423504458
  H        13.6729333031       -0.6132251202       41.3321289210
  O         5.5780417973      -10.0079071546       28.7692848856
  H         5.4580881807       -9.0888350554       28.3678644962
  H         5.4133661980       -9.7838564074       29.7234872592
  O         2.8377321109        2.3431683033       37.1488140932
  H         3.4759776847        3.0924618778       36.9521780969
  H         3.2161944892        1.8985757571       37.9769290797
  O        13.7129516393       -4.1394200752       26.8098037953
  H        14.3518677544       -4.3969642951       27.5567677469
  H        14.1603121039       -3.3321522382       26.4076122038
  O        12.0619500858       -9.2908771460       45.1271828704
  H        11.8783751962       -9.6517002861       44.2066660669
  H        11.3353460541       -9.5187227788       45.7832275936
  O        12.9526649625       -2.8214221568       32.0489273817
  H        11.9671990413       -3.1467697467       32.0615788758
  H        12.8553593682       -2.2675276889       32.8885914295
  O         6.2399919412       -5.6115749818       35.8907605433
  H         6.8615201464       -6.0927601512       36.4743456301
  H         6.2900862676       -4.6796066188       36.2846396361
  O         3.5784266921      -11.1978402071       39.6030653804
  H         2.7019924258      -11.4514802974       40.0947711945
  H         4.3659533306      -10.9472574693       40.2387421995
  O         2.6747578837       -2.4814862790       37.5311916482
  H         2.1083429859       -1.7660075668       37.2153169953
  H         2.7748163271       -3.0190249934       36.6992856222
  O         2.1455843456       -1.8376052101       42.5726748741
  H         2.9272049767       -1.2457594892       42.8144567058
  H         1.5207882322       -1.8235461850       43.3209428428
  O        12.4831666287       -6.7109960821       33.2337015405
  H        12.8652344425       -6.4497085608       32.4021386342
  H        12.3106965916       -7.6858089489       33.0251440952
  O         4.9512481616       -0.1870982614       30.7716243146
  H         5.3558680338       -0.1181712100       31.6749469207
  H         4.4612349390        0.6907167233       30.5275973523
  O        17.1720652539       -0.9831932782       34.1845154491
  H        17.5168160611       -1.6388976767       33.5064748726
  H        17.8927212813       -0.7078676587       34.8144298533
  O        16.1334440755        2.6948839971       30.8591406579
  H        15.4568716926        2.8616521078       30.1521490343
  H        15.5738072276        2.5087343340       31.7092657511
  O        11.0093202117       -8.0459809011       37.4125703712
  H        11.7512686407       -7.4309713964       37.6985061904
  H        10.2821995475       -7.3246804768       37.3894307252
  O        12.3194253999       -0.6292770457       34.0652493011
  H        13.1211703705       -0.0940840564       34.1472830630
  H        12.4003822202       -1.4589425246       34.7380260097
  O        12.9047863497       -5.9050580636       42.7110676889
  H        13.7345745100       -5.3377595524       42.4515385256
  H        12.1244679760       -5.4265447108       42.4302760008
  O        16.5110644362       -6.7587344086       34.8097473495
  H        17.2396428475       -6.0989983392       35.0291918684
  H        16.4971866610       -6.9760845928       33.8666651932
  O        -2.5474031472       -0.7511398587       25.3595456984
  H        -3.1740527514       -0.3421694526       26.0086076745
  H        -1.5306250943       -0.5076988528       25.6147795410
  O        11.8535946631        2.0727687374       42.5403563704
  H        12.6117499983        2.6614956720       42.2998426932
  H        11.0687035968        2.6106922844       42.0970510957
  O         9.9548753298        0.3978816206       47.5587717952
  H        10.9136820092        0.1086994012       47.2250627487
  H        10.0690997085        0.1697736613       48.5359213854
  O         7.6021026761        3.4202244868       33.4113088280
  H         7.1222750645        2.8681788571       32.7687713297
  H         8.5548334830        3.1163855331       33.3843099427
  O        14.6547648130        2.6625999439       33.1287116079
  H        14.5823472401        1.9556826776       33.8108567372
  H        13.6095286615        2.7758310097       33.1153637449
  O        20.9631519656       -1.9549245962       34.1214195592
  H        21.2262497568       -1.1157032491       34.5968248411
  H        21.7928220817       -2.3353831908       33.7967355198
  O        12.5223537057        2.0263108036       36.2939405127
  H        11.7768034166        2.6995235979       36.4185985398
  H        13.3756248014        2.4814958680       36.4819415779
  O        15.1254516635       -4.6209713164       41.6901761245
  H        15.9991854550       -5.0549916746       41.8729670742
  H        15.1802773257       -3.7028538348       42.1617849298
  O         4.9877748572        3.8509240397       36.6922166808
  H         5.3913518234        4.5044699614       37.3402021936
  H         4.6803876969        4.4393901640       35.9039144219
  O         0.2695529924       -0.3891589216       38.0944687440
  H         0.5425290202        0.4465930936       37.7253071269
  H         0.4411991141       -0.1819511585       39.0788682316
  O        17.6462090825       -3.0618345704       32.6153547956
  H        16.7760226492       -3.4069428721       32.3105235347
  H        18.0856178504       -2.9679268264       31.7402308283
  O         9.0800944874       -3.3462008822       37.8604301291
  H         8.3400745277       -3.0308828616       37.2719313899
  H         9.5515456287       -2.5138820471       38.1036556408
  O         2.3711449737        0.2782358400       35.5300098412
  H         2.6054655063        1.2164851387       35.7811123162
  H         3.1645932118       -0.0123196376       35.0147607007
  O         8.3535318044        1.5328295412       43.4308733941
  H         9.1261064752        0.9237769933       43.6575116638
  H         7.6769816752        1.1359710916       42.8965804573
  O        10.0034463114        2.9314545822       34.4221872410
  H         9.9652407522        2.0869521363       34.8791437315
  H         9.8812129300        3.6084659256       35.0992925720
  O         8.4975324491       -4.8251178817       43.6458455325
  H         7.8775247297       -4.2060319074       43.1890414349
  H         8.1606879382       -5.0217667716       44.5057704143
  O         5.0161631912       -6.0062812162       42.4572662753
  H         5.5022471641       -5.1869916096       42.3437474577
  H         5.0977994893       -6.5381596940       41.6220055083
  O         0.9849115450       -6.5089574597       37.8569744437
  H         1.1699129212       -5.7061608943       38.3806965033
  H         1.1526829867       -6.2674109714       36.8871133555
  O         8.7974584478        3.2313470590       38.6450882866
  H         8.4774648875        2.9015766714       37.7810766031
  H         9.7292218344        3.3455391787       38.5226262105
  O        10.0687009740       -1.8496531303       41.9300323509
  H        10.5930695057       -2.6111406873       41.4289545170
  H         9.6451079192       -1.4311732547       41.1835351649
  O        20.6235772963       -4.9174305742       27.3511087312
  H        21.0110045471       -4.1811552775       26.8504194912
  H        21.2678454823       -5.3264579781       27.9236083188
  O         6.5919178990       -3.8545609751       29.2625141911
  H         6.8983231783       -4.3269512368       28.4285523493
  H         6.5178719195       -2.9193441866       28.8513754004
  O         7.5932431988       -6.0658379371       33.4370861064
  H         7.3989208806       -6.9654699373       33.1078378487
  H         7.0668152863       -5.8742949272       34.2648232887
  N        12.1340058974       -3.1114231405       35.4569577739
  H        13.0548891987       -3.6259890525       35.5369951105
  H        11.8134520474       -2.9298343570       36.4244353000
  H        11.4423912804       -3.7244739109       35.0268627881
