     193
 CELL 12.4294 12.4294 12.4294 90.0 90.0 90.0 i =    46520, time =    23260.000, E =     -1096.5309139605
  O        -0.7333417897        0.6009875238       22.1562862808
  H        -0.4045704952        0.3925123850       21.2830690245
  H        -1.3123410506        1.4368989322       22.0404516916
  O         2.4692277604       -8.5871711331       17.4923025830
  H         3.0080895262       -9.4461997164       17.6468439500
  H         2.5970244927       -8.0852340767       18.3322048445
  O         2.4876482277       -6.6654858797       19.3697073151
  H         2.9342663743       -6.5492038615       20.2055200348
  H         1.5210134563       -6.5423796682       19.4768111262
  O         1.1069135715       -0.3596169611       19.7234811289
  H         1.6757327318        0.2543802857       20.2603676474
  H         1.4338270975       -0.0646634963       18.8164075797
  O        -8.9905012078       -4.1999492190       16.1091770783
  H        -9.7764964055       -3.8657746118       16.6039855498
  H        -8.7468769756       -3.5911582543       15.3380901850
  O         7.2086047040       -5.9658499196       23.9227309180
  H         6.7862371574       -5.4755537592       23.1812299248
  H         6.6234717004       -6.6914111485       24.0880987577
  O        -1.7416059994       -1.0753972255       11.6139630989
  H        -2.0807770204       -0.5561840943       12.4339917131
  H        -1.6272680880       -0.4692238565       10.8450597879
  O         5.6787112504        3.3144427905       22.3565858599
  H         4.9568562208        3.9733134712       22.0946189227
  H         6.0031460904        2.9444090087       21.4906018076
  O        -2.2661453424       -6.9499401725        8.8862384393
  H        -2.3326064742       -6.7678814962        9.8496902805
  H        -3.0893320074       -6.5756621406        8.4820849531
  O         1.1761666260       -0.7862327796       12.1989531474
  H         0.4050770009       -0.1638100167       12.2645109836
  H         1.0887035109       -1.3162491777       11.3901304280
  O         2.3506510299       -4.6598022098       11.3143130111
  H         2.6339035188       -4.2132051384       12.1446826145
  H         1.4307210662       -5.0558054712       11.4090803352
  O        -7.1364165139        5.0057379799       13.1702089685
  H        -6.9755569665        4.4766446771       14.0176470978
  H        -7.8672470937        5.5608074380       13.5028667231
  O        -7.4923736193       -2.1594680449       20.7277804762
  H        -7.6080020956       -1.4290913198       21.4149396645
  H        -8.3418741411       -2.3030614297       20.2322903597
  O        -0.1975309595       -2.6068224326       14.1823639233
  H         0.1429476376       -2.0609091432       13.3778811710
  H        -1.1851636586       -2.5204496001       14.2615192580
  O         0.3185531020        1.1779469022       15.0438168379
  H         0.0975344541        1.9522093257       15.6503936624
  H         0.5074356170        1.5064347701       14.1450010423
  O        10.9176431745        1.0962116936       18.7523648417
  H        10.4818464688        1.1258668406       17.8783145273
  H        11.3379532027        0.1773059049       18.6781412944
  O         6.1931373961       -4.8293482201        8.9333743848
  H         6.9233654886       -4.9405033001        8.2341326449
  H         5.6314496872       -4.0616829972        8.6453735396
  O         2.8647917182        1.6005136434       20.7930932820
  H         3.6403857324        1.4647995332       21.3797371347
  H         2.2076069843        2.2356938521       21.1903119832
  O         1.7770993362       -0.1045544788       16.9107065276
  H         1.2656099780        0.3921307504       16.1547914594
  H         2.7336822838       -0.1688268252       16.7526155971
  O        -0.2338856872       -5.6997530879       19.6015923551
  H        -0.2129940058       -4.8579003264       20.0864411692
  H        -0.8712135001       -6.1096384463       20.2400773714
  O         6.5390327048        2.4978247351        7.3078479911
  H         7.3043399038        1.9323236315        7.2961871832
  H         6.7032950656        3.4736275257        6.8569325072
  O        -0.3098009956        3.6344372176       19.4961603990
  H        -0.2877364790        2.7614125899       19.1063735471
  H         0.0778280272        3.5397822563       20.3607409809
  O         7.5495395538        0.3227282358       22.6796265801
  H         7.7728501264        1.0291482828       23.3381660424
  H         7.7592597822       -0.6218985935       23.0508615219
  O        -1.9088418955       -7.7107863645       11.8027035365
  H        -1.5756558928       -6.7741550089       11.8864336399
  H        -1.1367368808       -8.3388048247       11.7120787295
  O        -2.8502172893        1.6862335318       16.2178949856
  H        -3.0712605967        2.5976926580       16.4689371239
  H        -3.5787091362        1.3796610189       15.6393667025
  O         8.2957355817       -5.8770456029        7.2806087760
  H         7.7436767350       -6.5112172854        6.8219856625
  H         8.9062612990       -5.4461315306        6.5542105338
  O         4.6857774464      -12.2601191249       22.3249566667
  H         4.3409558627      -12.2867975304       23.2686901773
  H         5.6586003699      -12.1342568524       22.4705163844
  O         3.5435007052       -3.0596532753       13.2798960994
  H         2.8202972752       -2.4104539231       13.4044582421
  H         4.3840919969       -2.5078141107       13.1769194394
  O        -3.5525478449       -6.6815890300       15.0637837486
  H        -3.3601970795       -6.0507517704       15.7431455481
  H        -2.9336784194       -6.4816060372       14.3359929514
  O        -2.4807239993       -9.7617475616       21.9139048928
  H        -3.1194315482       -9.6338499375       22.6198848674
  H        -2.3448815806       -8.8847943994       21.4938057878
  O        -3.3414572044       -2.5658229092       17.1574348296
  H        -4.0339607174       -2.1294306537       17.6431796256
  H        -2.4090781725       -2.3025484220       17.4745102944
  O        -5.0394605029       -2.5905919505       23.1547866634
  H        -5.7936851851       -3.1063184833       22.8271455518
  H        -4.3063394818       -3.1255916642       22.9144089084
  O         3.2726535594       -9.2718629819       11.3983552568
  H         3.8201975772       -8.6481676954       11.9200512404
  H         3.6556670115      -10.1705341394       11.6027435630
  O        -2.4335421876        0.5315671871       13.6719067708
  H        -3.0645987170        1.2309772055       13.5937256707
  H        -1.8155268888        0.8699949122       14.3106647921
  O         9.4764263891       -5.1041225455       12.7997922277
  H         8.5942305145       -5.3436383041       12.5032180193
  H         9.3432655869       -4.3165244617       13.3282252373
  O         7.5990179897        3.0551435135       12.0418272264
  H         7.1279719764        3.4603054899       11.2080292805
  H         8.3861774407        3.6425907160       12.1645020508
  O         5.7708649919       -4.6966638426       17.7258856670
  H         5.9973184250       -3.9227803483       18.2565293010
  H         4.9333956292       -4.5281227788       17.1956809905
  O         6.0496695300       -2.2370258930       13.2439087819
  H         6.6629454360       -2.3364793798       12.4310412294
  H         6.1653891226       -3.0476289807       13.8446167075
  O         1.7970481631       -2.2738867985       22.5211181337
  H         2.2994520239       -1.8973148694       21.7874726286
  H         2.2590016687       -3.1820574529       22.7613791925
  O         6.6723547046       -8.1141516686       15.8705228276
  H         7.3853143751       -7.6423526430       15.3709489750
  H         6.8770768491       -9.0489758224       15.7282831694
  O        -5.5854481887       -1.5221099289        6.3949761289
  H        -6.1981880692       -1.5881131805        7.2109302282
  H        -4.9283957839       -0.7854910570        6.6822201510
  O         3.9458449115        5.8452986624       21.8967163818
  H         4.8554157200        6.2688803567       21.8630338737
  H         3.4511792564        6.5173345276       22.4470145261
  O         3.3429952578        0.5203969595       25.0540610810
  H         2.4528414746       -0.0040605025       24.8379933017
  H         3.8893661171        0.0387797924       25.7252134775
  O         0.6587928895        5.0077751530       14.1445321958
  H         1.5995126896        5.3338947353       14.2957009418
  H         0.4401272751        4.7065004321       15.0827295969
  O         7.1124702600        1.9220078977       14.6546217518
  H         6.4589617179        1.1810189680       14.4943739946
  H         7.2358754368        2.2914131024       13.7862186436
  O        13.1373658175        2.5374449516       12.6356194674
  H        13.0852388055        3.2782490065       13.2924567978
  H        14.0273090013        2.6757274351       12.2275000619
  O         5.4263090953       -0.0573800511       14.4698556717
  H         5.6030228900       -0.8934330598       14.0486216990
  H         5.1278670165       -0.2559608131       15.3840053260
  O         8.3467361426        0.5157109983       19.9313053478
  H         8.2699493787        0.4351389284       20.9132521127
  H         9.2764560057        0.7882351863       19.6440014094
  O         0.1287224875        3.4708758155       16.4799436594
  H         0.9963555242        3.6256954134       16.9574220622
  H        -0.6866682258        3.6939079664       17.0580481552
  O        -7.9051631711       -0.5009918084       17.1060554413
  H        -7.1487688862       -1.0844319087       17.4261158198
  H        -7.9990982528        0.2847358528       17.6737536943
  O        10.1430379846       -3.4874821330       10.5221022993
  H        10.0726623501       -4.0783552066       11.3040610029
  H        10.3232335405       -2.5614201793       10.8844499589
  O         1.0377808848       -2.7621921269       16.7896771445
  H         1.4161980526       -1.8584660972       17.0540147201
  H         0.7161505399       -2.6238837437       15.8900775338
  O        -2.9841039550       -2.4044010975       14.4491900140
  H        -3.2894346993       -1.4659571312       14.2427086610
  H        -3.4210680147       -2.5700605459       15.3378300661
  O         1.1470005644        3.3133427503       22.1128586572
  H         1.8516392170        3.5740205172       22.7825446357
  H         0.4659735289        2.7517822160       22.5993210401
  O         3.0511426210        5.7133164172       15.0479009950
  H         3.1061114920        6.5863161063       15.4829886773
  H         3.0174991901        5.0893979357       15.7803022121
  O        -0.6219752651       -2.9673532210       20.9714529028
  H         0.2989081221       -2.6753402848       21.2697052778
  H        -1.1221891118       -3.1239408359       21.7914233808
  O        -1.2099525800       -2.0148906844       18.3015858999
  H        -0.4448855565       -2.4822942678       17.9048136631
  H        -1.2246776489       -2.3435736189       19.2546492739
  O        -5.8684580260       -7.5753019493       18.4176776662
  H        -6.5160336153       -6.8326189835       18.3767396363
  H        -5.6904147194       -7.7718222241       17.4006604686
  O         4.1660243201        1.7794688428       18.4196929836
  H         3.5841954964        1.7689956647       19.2321443589
  H         5.0262211073        2.2295852801       18.7751319463
  O         2.8372429168       -3.5015247492       19.4548204254
  H         2.1011658700       -3.0232229408       19.0356968309
  H         2.7144281471       -4.4951753109       19.2802703676
  O         9.9510272242       -8.2426606379        5.4111967955
  H         9.6370014391       -7.2870768870        5.4436428881
  H        10.4874054029       -8.4442626373        6.2661922451
  O        -2.7393085204       -5.0938083142        5.0286131375
  H        -3.0487016848       -4.1323066462        4.9869033411
  H        -1.7936589248       -5.0018530494        5.2974694071
  O        -0.0838868255       -5.5165317248       12.3012624865
  H        -0.0429921500       -6.2611408006       13.0231708044
  H        -0.3299021210       -4.7460763990       12.8146560469
  N         6.4215492935       -4.5622288304       14.9142435034
  H         6.9106918379       -4.4638779077       15.7811708049
  H         5.5220084419       -4.9150555612       15.0965334597
  H         6.9469979753       -5.2470270901       14.3442981582
