     193
 CELL 12.4294 12.4294 12.4294 90.0 90.0 90.0 i =    48120, time =    24060.000, E =     -1096.5018021077
  O        -0.5126426877        0.4846959400       22.7265488693
  H         0.1047088349        0.0978415422       22.0273822397
  H        -1.0614624182        1.2094117025       22.2994648510
  O         2.1506348704       -8.9322429022       17.8942903026
  H         2.8130574560       -9.4509997032       18.4090396944
  H         2.0010330662       -8.2010783641       18.5765061617
  O         1.7890912595       -7.4930822757       20.1362877361
  H         1.3226132016       -8.3285773315       20.2560172905
  H         1.2178347862       -6.7709510019       20.4469878745
  O         1.6150257632       -0.7506522869       20.8531313900
  H         2.0707422958        0.0653380669       21.2259830200
  H         1.9163151592       -0.9863782976       19.9131112038
  O        -8.4307749352       -4.9931538995       17.3116581918
  H        -9.2850656136       -4.6336611714       17.7798318120
  H        -8.2577505775       -4.4282033074       16.4737984609
  O         7.0486944371       -5.5472882843       24.7544064096
  H         6.8184911294       -5.0758526752       23.9485203309
  H         6.2626766643       -5.5977449200       25.2970651392
  O        -0.6061343209       -0.4495217968       12.9435392860
  H        -1.2305412347        0.0160526672       13.5344592456
  H        -0.4617823069        0.0567782533       12.1728014521
  O         6.6055942553        4.0839521968       22.5752844127
  H         5.9511131718        4.8419894761       22.5426385403
  H         6.3973537883        3.6753764019       21.6515798790
  O        -3.1152606774       -6.8621947931        9.3466626881
  H        -2.5820276216       -6.9004664924       10.2073529590
  H        -4.0757427227       -7.1223318107        9.5022988271
  O         2.0250330086       -1.4994245244       13.3678122033
  H         1.1538181363       -1.0351879549       13.4514244821
  H         2.0587105408       -1.8864301718       12.4154597423
  O         3.4403612045       -4.9602101465       11.6941740790
  H         3.7246909741       -5.2134638769       12.5722811775
  H         2.4723236656       -5.0455810245       11.7653454132
  O        -6.9574938693        5.2253807323       14.1678856684
  H        -6.2007749469        4.8735375256       14.6741374782
  H        -7.7759019989        5.1237877269       14.8056188258
  O        -7.4146388697       -2.0270598869       21.4612480740
  H        -7.5460764257       -1.5711352109       22.2859859108
  H        -8.1476970669       -2.6500921355       21.2894248584
  O         0.0846646958       -3.5564757119       14.5120759430
  H         0.7760155422       -2.8306816292       14.3577852062
  H        -0.7914371829       -3.1611191984       14.4193954897
  O         0.5700297373        0.5615786113       15.8630735912
  H         0.2638623837        1.3807611271       16.2568613516
  H         1.1552109357        0.8885549013       15.1705566967
  O        11.1492093843        0.8742190204       19.6864859091
  H        10.4710175554        1.0107756038       18.9812196056
  H        11.3633225793       -0.1159708795       19.7417422907
  O         6.8491502983       -4.0540448666       10.1236407640
  H         7.6536778782       -4.1041183275        9.4971678506
  H         6.2458172404       -3.3386738370        9.7469609615
  O         2.9833837788        1.5603178254       21.9524575630
  H         3.7145093784        1.0613229728       22.3931808235
  H         2.5019212906        2.1446359932       22.6341547924
  O         2.0111787276       -1.1448258376       18.0685734820
  H         1.3247758596       -0.8768859775       17.4153515314
  H         2.8625831841       -0.7605929836       17.7960775625
  O        -0.5084134720       -5.5796195836       20.7520030977
  H        -0.3437871158       -4.6195293727       21.1631596432
  H        -0.7454408011       -6.2221322600       21.4317688566
  O         6.5438689104        3.0746589516        7.4080679484
  H         7.0516016375        2.2919159676        7.8075845797
  H         7.1268647390        3.7792042821        7.1756958137
  O        -0.1998063031        3.1903569707       20.5346829567
  H        -0.6033847804        2.3688661595       20.1646781854
  H        -0.3488457948        2.9673774223       21.5132285701
  O         7.5897949175        0.2780502608       23.2251920654
  H         8.1050947623        1.0161627287       23.6442727881
  H         7.8077670192       -0.6148229788       23.7825227371
  O        -1.0816220229       -7.1780544113       11.1771082015
  H        -0.7220684523       -6.5837776874       11.8608186738
  H        -0.4002227905       -7.8788524411       11.0638120294
  O        -3.1234476389        1.2238042096       17.6060487694
  H        -3.2253347824        2.0976007416       17.2522643424
  H        -3.2902949802        0.5621824439       16.8935893645
  O         8.9975513088       -4.3858765247        8.5830265314
  H         9.2481833168       -5.3553187539        8.5896751895
  H         8.9195359615       -4.2246431014        7.6665346212
  O         4.9011054799      -12.4737832350       23.4419753128
  H         4.6648264144      -12.3062078365       24.3534589737
  H         5.9164912646      -12.3792202014       23.3221084657
  O         3.9871376564       -4.0783435761       14.5804588674
  H         3.1805731312       -3.4812311234       14.4704842081
  H         4.7401222366       -3.3064594783       14.5399731483
  O        -2.4551887659       -6.5135013970       15.6713390372
  H        -1.7484144984       -6.2792437366       16.3119287305
  H        -2.5212669932       -5.9264969689       14.8867069445
  O        -2.7298034700       -9.8061273639       22.5757845922
  H        -2.9903173467       -9.3187349181       23.4051736945
  H        -2.7585751676       -9.1376441634       21.8583515199
  O        -3.6216770946       -2.7744476710       18.0348003987
  H        -4.3881418672       -2.5875507806       18.6142816084
  H        -2.8642765337       -2.3297247906       18.4539770286
  O        -4.6969386665       -2.0076590869       24.5424200860
  H        -5.1454604310       -2.6889998067       24.0500935483
  H        -3.7364955318       -2.3657595335       24.5662688461
  O         4.0974794516       -8.5936903243       12.0512854077
  H         4.6558663861       -8.4817888436       12.8376196750
  H         4.6274725516       -8.9352586365       11.3189860019
  O        -2.4038850450        0.3188934565       14.8870548920
  H        -2.9661270363        1.1015790672       14.5097076174
  H        -1.5555005634        0.7114628800       15.2457830023
  O         9.3311424739       -4.8876484809       13.4300994821
  H         8.4961867010       -5.1844293002       13.0677635963
  H         9.0696545591       -4.0839634927       14.0382566316
  O         8.2557795225        3.4810044390       12.3304887715
  H         7.6274657859        3.8314764071       11.6895245546
  H         8.4765565667        4.2696541075       12.8626573046
  O         5.7496122375       -5.5028752036       19.5512547930
  H         5.2456083648       -6.1558044965       20.0878264265
  H         5.2667551700       -5.5189616353       18.6641671480
  O         6.1828172779       -2.3876354992       14.8830719711
  H         6.6792068653       -2.4392308559       14.0098589213
  H         6.6006527676       -3.3028400534       15.4104981076
  O         1.8653593465       -2.2510825375       23.0931514892
  H         2.0521691820       -1.5678447657       22.4246417545
  H         2.2794370444       -3.0675411396       22.7223161677
  O         7.7618778981       -8.0322675535       15.9079015987
  H         8.6434197449       -7.6065129313       15.8659850636
  H         7.8970738850       -8.9261861964       15.5037627840
  O        -5.4905387008       -1.4713309257        7.2446360252
  H        -6.1167633624       -1.7790683449        7.9699789484
  H        -4.9508523542       -0.6723096716        7.5624867359
  O         4.8752152085        6.3039629304       22.1626710377
  H         5.5231516768        7.0832750356       22.2154141008
  H         4.2674253474        6.5077164971       22.9362444144
  O         3.8967203105        0.4424603552       25.9664812702
  H         3.3414766211       -0.4039347383       25.9804421159
  H         4.6385055123        0.3615875626       26.6407326288
  O         1.0769147449        4.6806818003       14.5938037900
  H         1.9047878663        4.9369542125       15.0415646385
  H         0.5245079106        4.4875895048       15.3523084573
  O         7.8642726338        2.0152396093       14.4559288005
  H         7.1919626712        1.4813921861       14.9221620254
  H         7.5644492070        2.3905047308       13.5966425646
  O        14.0883098124        2.1858009173       13.6627103116
  H        14.0100234778        3.0424038633       14.0324816647
  H        15.0657875767        1.8826527651       13.8556475912
  O         5.9258770553        0.2661879538       15.5432656471
  H         6.1698993367       -0.6735901235       15.6383785976
  H         5.4304626446        0.5500007002       16.3932411818
  O         8.0249253921        1.0192565883       20.6384027309
  H         7.8618710520        0.8001986136       21.6188511534
  H         8.9267852098        1.3261251606       20.6164040026
  O        -0.3404869620        3.2925628459       16.7319920774
  H         0.4985872787        3.2537204610       17.2503115112
  H        -0.9518155404        3.8632019078       17.3328810460
  O        -7.7555765745        0.0450212081       18.1485672869
  H        -7.0442621167       -0.5392700320       18.5272291487
  H        -7.9283383670        0.7110043853       18.8475141376
  O        10.2940323284       -2.7139890023       12.0506138658
  H        10.3932101689       -3.6229347126       12.5341953168
  H        10.8896649034       -2.0089027725       12.4620826016
  O         1.6639542419       -3.7980132218       18.6347608459
  H         1.7322313270       -2.9155175794       18.2349016946
  H         0.8359799454       -4.1693533582       18.2922699351
  O        -2.9355186901       -2.9104555140       15.3835141123
  H        -3.0620384899       -1.9863472422       15.0307310016
  H        -3.1987668489       -2.9488709459       16.3263353082
  O         1.4634844115        3.4444906436       23.4667308422
  H         2.0533393116        4.2638994131       23.5494867123
  H         1.4991311569        3.0371637743       24.3728836068
  O         3.4136497473        5.2077499027       16.0170242606
  H         3.7571636856        5.9684757961       16.5709680706
  H         3.1513477684        4.4495223923       16.6386888420
  O        -0.7464128326       -2.8772715267       22.1696072808
  H         0.1323755689       -2.5577427904       22.5798510836
  H        -1.3842917249       -2.9856228547       22.9244071125
  O        -0.9286912773       -2.0666441624       19.4972820302
  H        -0.3692011955       -2.7781505389       19.0846356610
  H        -0.9089929087       -2.3487327847       20.5119635134
  O        -4.4851825631       -6.8427583259       18.8716211360
  H        -5.2679052291       -6.3253684759       19.2063905059
  H        -4.7033953943       -7.0279652951       17.8959758180
  O         3.9814030971        2.4822620752       19.5907031405
  H         3.5360195607        2.1392629254       20.4320362213
  H         4.9344760086        2.8296286858       19.7201086591
  O         2.8031153973       -4.0722474624       21.2789488977
  H         2.4794205693       -4.1005061728       20.3277703977
  H         3.5244118314       -4.6793128047       21.3543047169
  O        10.3966644267       -8.1810001049        6.0979817990
  H         9.6196341734       -7.5508597566        6.2795507100
  H        11.0177722371       -8.1115083635        6.8544599162
  O        -1.2423840610       -4.9937730847        5.6524139090
  H        -1.9429275887       -4.3569374914        5.8546783543
  H        -1.0623358015       -5.3655856339        6.5312752081
  O         0.9680589942       -5.6763571555       12.8678571869
  H         0.7876543871       -6.5879137511       13.2447769776
  H         0.5983151650       -5.0586058412       13.4894205746
  N         6.8898232258       -4.7603693056       15.8625516860
  H         7.8804095170       -4.9684605405       16.1740296229
  H         6.2046429085       -4.8430280256       16.6758390968
  H         6.6496611737       -5.2585087704       15.0453296364
