     193
 CELL 12.4294 12.4294 12.4294 90.0 90.0 90.0 i =    44520, time =    22260.000, E =     -1096.5313851514
  O        -0.8595538231        1.0176341345       21.5703295953
  H        -0.8439648400        0.4973013199       20.6855252110
  H        -1.7574716362        1.4164604172       21.4520064678
  O         2.3515716774       -7.4923108930       16.1356641322
  H         2.6468277501       -8.4184602290       16.2623530365
  H         2.1199993888       -6.9982981568       16.9953113975
  O         1.8833834657       -6.0068307635       18.3685436488
  H         2.3889550743       -6.1554074959       19.2275224867
  H         0.8499468853       -6.2441469353       18.6226209198
  O        -0.0992174657       -0.4560483516       19.3624769772
  H         0.8853366477       -0.1159786465       19.4369970829
  H        -0.4103325307       -0.1896809618       18.4533607759
  O        -9.6556081783       -3.1260329208       14.6448292702
  H       -10.5582811243       -2.8262526529       14.9775398779
  H        -9.7080909167       -3.0504030057       13.5753354898
  O         6.3986696494       -5.7648852517       22.9822650172
  H         5.9792123226       -5.2465350757       22.2572754286
  H         5.6879435379       -6.2182079400       23.6118887134
  O        -1.2194877602       -0.8783361397       11.0646212056
  H        -1.7427782309       -0.4085251073       11.7819840809
  H        -0.9625223076       -0.2189291619       10.2885615046
  O         5.8242667907        3.6815687365       21.1800470632
  H         4.8710280824        3.7696305373       21.4236488392
  H         5.8656130808        3.1509118688       20.3450361109
  O        -3.0270690562       -7.7990738464        7.7013402466
  H        -2.6548029154       -7.8104082366        8.6622490117
  H        -3.8928512832       -7.3037226511        7.5869188577
  O         1.4521197868       -1.0829081773       10.4224710099
  H         0.5409507178       -0.9671048495       10.7091110862
  H         1.3757986279       -1.8480222871        9.8363085347
  O         2.1897513918       -5.2104789387       10.2654248830
  H         2.7432412875       -4.5363936807       10.6834657346
  H         1.3218316415       -5.2997208709       10.7434717310
  O        -7.8094308180        5.3745997022       12.1727380389
  H        -7.1959190413        4.9691978198       12.8519790871
  H        -8.4612570344        5.8924187929       12.7699358920
  O        -8.2166198061       -2.2517878351       19.0254605537
  H        -8.2784564827       -1.4749733299       19.6320507649
  H        -9.0376414063       -2.3481755898       18.4370123878
  O        -0.5963281741       -3.1318395048       13.3612420874
  H        -0.5584080332       -2.4209261670       12.7145699063
  H        -1.5642281086       -3.1696071226       13.6379806783
  O        -0.2647343451        1.9456506360       13.9185132884
  H        -0.7033858792        2.6974475629       14.3835925881
  H         0.0927682476        2.3701586646       13.0675206200
  O        10.1859596563        1.1225457579       16.9981957385
  H        10.0207902647        1.5120693144       16.1281480011
  H        10.2444799642        0.1463421318       16.9961228307
  O         5.4002002744       -4.2676453752        7.9231106467
  H         5.9860640535       -4.7486698255        7.2389177563
  H         4.9090698943       -3.6088354660        7.3427363766
  O         2.2481247600        0.8880524542       18.8370626107
  H         3.0667815307        0.7321611348       19.3713835705
  H         1.9032022145        1.6584161152       19.4378619824
  O         1.4099727025        0.4174819438       15.2750848993
  H         1.1648873982        1.0739404429       14.6460581023
  H         2.3769370560        0.2319135192       15.2967401232
  O        -0.7417085042       -6.1523778246       18.7542721364
  H        -0.7888875911       -5.1997571448       19.1074671775
  H        -1.2838460055       -6.6579789782       19.4136348598
  O         5.5826640151        3.0996833718        5.8605514742
  H         6.0279578671        2.3894045828        5.3508673449
  H         5.7423746969        3.8988461488        5.3566841160
  O        -0.1243499764        2.8015947840       17.6109631991
  H        -0.9293366252        2.1662615920       17.5370555884
  H         0.1596683757        2.7850050523       18.5532196849
  O         6.8370763646        0.5189368921       20.8120248067
  H         7.6587566360        0.9618905873       21.1394227965
  H         6.9417390720       -0.3680650761       21.2732257804
  O        -1.8832262984       -7.7352859366       10.1418631303
  H        -1.4926002052       -6.8338033810       10.1703052401
  H        -1.0701639614       -8.3346557780       10.3509521953
  O        -3.1282555035        2.8533541188       14.7940890030
  H        -3.6542237073        3.3703687472       15.4621189480
  H        -3.7266891575        2.7920069255       13.9755663257
  O         6.9950745198       -6.2344007642        7.0879008387
  H         6.5563293785       -6.9106926504        7.6082046154
  H         6.7696220878       -6.6278859879        6.2186427300
  O         3.9234972136      -12.6290241537       20.7317165820
  H         3.4939105397      -12.4188534477       21.6437512341
  H         4.8433558269      -12.2651281291       20.8909716725
  O         3.0677385427       -2.9853286992       11.7794935814
  H         2.5905977573       -2.2001748331       11.3952852900
  H         4.0514905474       -2.7547463666       11.6838659524
  O        -3.3012652766       -6.6265611783       13.3832902090
  H        -2.9224811613       -6.3058752873       14.3017916276
  H        -3.1770128710       -5.8327110856       12.7452381270
  O        -3.4240684645      -10.4484208802       21.2045791273
  H        -3.5067559316       -9.8673564763       22.0314396535
  H        -3.4204733385       -9.8420889943       20.4501191348
  O        -3.9653431243       -3.3536077930       16.8553039795
  H        -4.8050924080       -2.8523757565       16.8740969635
  H        -3.2247235026       -2.7064950248       17.1675029640
  O        -5.2535395547       -2.2912808910       21.6792366435
  H        -5.6613019527       -2.8885949885       20.9678202101
  H        -4.3054255909       -2.5399441621       21.6780157462
  O         3.1653962109       -8.9556026805       10.5999239025
  H         3.7529874484       -8.3506732130       11.1548534304
  H         3.4490135504       -9.8612252229       10.8612446702
  O        -2.3661953864        0.1278918724       13.3755794928
  H        -3.0817816274        0.6505458727       12.9365609311
  H        -1.6808586296        0.7569286522       13.7634903252
  O         8.7925511802       -4.6565171567       11.5296573920
  H         7.9838732798       -5.1434904704       11.1699446913
  H         8.3596718910       -4.0158956343       12.1027622178
  O         7.7730437166        3.5022198580       10.5565395309
  H         6.9646869140        3.6002569572       10.0595394282
  H         8.1464605082        4.3792792243       10.8019837521
  O         4.2787694708       -4.6342302712       16.5360151598
  H         3.5856825684       -5.0985186291       17.0270947392
  H         3.7314067663       -4.0222109738       15.9264898991
  O         5.9113555308       -2.6899148524       11.7769002887
  H         6.3632157749       -2.7751648640       10.9308106073
  H         6.2033772819       -3.4992051750       12.3943746764
  O         1.3646374988       -3.1402930105       21.1851846433
  H         1.9968419961       -2.9687655811       20.4747340457
  H         1.7243195314       -3.9341908236       21.7212856132
  O         6.6672794114       -7.9157968109       13.9628825751
  H         7.6016069369       -7.5620002408       13.6247853130
  H         6.7684260698       -8.8918477528       14.0020406168
  O        -6.4284691511       -2.0559193142        4.2932001745
  H        -7.1021760276       -2.6074614863        4.7444702458
  H        -5.9755966158       -1.4024424045        4.9250199172
  O         3.4820789191        5.7251172669       20.6447751351
  H         4.2088390107        6.3775067663       20.4666597308
  H         3.0989858335        6.0391587981       21.4893535223
  O         3.5746478640        0.7971552623       23.9699296183
  H         2.6776689737        0.3752885758       23.9390185245
  H         4.0873550610        0.1799566707       24.5481643015
  O         0.1389378642        5.3115290711       13.2947264781
  H         0.9893153305        5.8052097044       13.4223654314
  H        -0.1607329391        5.1845674224       14.2565747381
  O         7.7046375720        1.9215623415       12.8069771747
  H         7.1551170679        1.0806991623       12.8034444342
  H         7.7260540333        2.3948614028       11.9462028766
  O        12.9321188601        3.3413446108       11.4248167443
  H        13.0625618218        4.0593475770       12.0478418668
  H        13.9323141103        3.2273846340       11.2302189938
  O         5.9626038271       -0.1011784112       13.0400454196
  H         6.0275698692       -1.0638079379       12.8226110642
  H         5.7013379271        0.0041736108       13.9902059056
  O         7.0200517740        0.3180583277       17.9413532416
  H         6.9913171031        0.3368298176       18.9280997779
  H         7.9690164662        0.4259927923       17.7290402013
  O        -0.6693995184        4.0947605631       15.4067184083
  H        -0.2022947902        3.9000413389       16.2698329150
  H        -1.6323215056        4.3156213264       15.6024912600
  O        -8.0641690083        0.5401218717       15.2682618056
  H        -7.7382201774       -0.0496784773       15.9458987435
  H        -8.3440942763        1.3632552707       15.7556910799
  O         9.7784690729       -2.9760711237        9.5332551076
  H         9.7126206448       -3.6689568899       10.2370333558
  H        10.2686859753       -2.2514653481       10.0031143132
  O         0.3029278380       -1.9284693815       15.5671324302
  H         0.4721362014       -0.9342989151       15.3357754532
  H        -0.1354950824       -2.2513890652       14.7064671052
  O        -3.2951324148       -2.7821193399       14.1275017206
  H        -3.2685093997       -1.7947750171       14.1588727608
  H        -3.5266067534       -2.9434657515       15.1255720735
  O         1.3733353864        2.7654774154       20.5861948263
  H         2.0864181420        3.1375988836       21.1208775925
  H         0.8007480257        2.2430833099       21.1549365780
  O         2.8799869622        6.4996069423       13.9417230322
  H         3.0361050292        7.4559021685       14.1733957467
  H         2.8123978393        5.9566508413       14.8522798329
  O        -0.9357398836       -3.5750626390       19.6504402962
  H        -0.0950785917       -3.2378737601       20.0466505427
  H        -1.5511786446       -3.5775940008       20.4829247575
  O        -1.8144716369       -1.7793979748       17.4330028923
  H        -1.0993598659       -2.0701690895       16.7609299792
  H        -1.6784189164       -2.3107641169       18.2627060042
  O        -6.2554000898       -6.9350855969       16.8631783419
  H        -6.8914249586       -6.2690987486       16.5651086742
  H        -5.8662650960       -7.3293325129       16.0701225712
  O         3.3743140594        2.5939942825       16.7666641635
  H         2.6813854587        2.0827379500       17.2821241333
  H         3.9374051864        2.9223028232       17.4943779832
  O         1.6885362182       -3.0115571020       18.0921930722
  H         1.2986346551       -2.6715093737       17.2305758051
  H         1.8275601260       -3.9938146446       17.9254042990
  O         8.6506797763       -8.2896994508        4.9285672450
  H         8.8275897566       -7.3127708293        4.9547454210
  H         9.3122309496       -8.7144166019        5.4865322107
  O        -2.7351920639       -5.5932871970        3.8075558707
  H        -3.3683685165       -4.8470033250        4.0630405253
  H        -1.8615593037       -5.2944079058        4.1055530988
  O        -0.5238344781       -5.4317757625       11.2934570688
  H        -0.3665946704       -6.0204656621       12.1172362999
  H        -0.5716860719       -4.5724697225       11.7154808443
  N         6.4532113019       -4.5372045250       13.9234272641
  H         5.8541777668       -4.5143254191       14.7271273886
  H         6.3864356755       -5.5789348789       13.7153355361
  H         7.4174165038       -4.3166786783       14.1316038010
