     193
 CELL 12.4294 12.4294 12.4294 90.0 90.0 90.0 i =    55720, time =    27860.000, E =     -1096.5183798987
  O         0.9594105386       -1.2412216080       26.2169310892
  H         1.9234854904       -1.2790477646       26.3086444985
  H         0.6254603893       -0.3345964197       26.2230595883
  O         3.4462209059       -9.5878945095       22.1765267224
  H         4.4147899806       -9.8710163961       22.1612164127
  H         3.3999434110       -8.7069244265       22.5798540883
  O         5.8256450222       -6.0968525518       24.3564229551
  H         6.1886484522       -6.6097418763       25.2194116269
  H         4.9984414184       -6.7016290747       24.1149734162
  O         3.8197917886       -0.6067987779       26.8194101045
  H         3.4543419582       -0.1965444968       27.6634694693
  H         3.9959352080        0.0935878888       26.0567076656
  O        -7.9313241221       -5.2207978929       20.5835872128
  H        -8.4327254137       -4.6229430306       21.1184575997
  H        -7.6952623615       -4.7916483579       19.7119982641
  O         8.5035675679       -6.3019685657       29.5908663330
  H         8.0087722583       -5.5236875702       29.3568183863
  H         8.6094070377       -6.3159351677       30.5459969066
  O         0.3982416284       -2.3684671741       16.3878293983
  H        -0.2859783425       -1.7993543203       16.7998124830
  H         0.3982790937       -2.1828455339       15.4294623557
  O         8.6966382088        3.8431149899       26.5505508382
  H         7.7894997914        4.1902519503       26.8231029834
  H         8.5300069639        3.6263521346       25.6032960712
  O        -1.8020529774       -6.5247628721       14.7113633187
  H        -1.7548567285       -6.2736600546       15.6404751935
  H        -2.4712598760       -7.1836735083       14.5193747903
  O         3.8647293339       -2.3615785387       16.7387901358
  H         2.8948739766       -2.4823371358       16.7872033509
  H         4.0493717793       -2.6915272527       15.8582404592
  O         4.5636768300       -6.0405038651       16.3071317543
  H         4.9551623887       -5.3756049654       16.9223997094
  H         3.6768677548       -6.2827119653       16.6733944938
  O        -3.8919154056        5.6216200408       20.0034230656
  H        -3.3694558377        4.8536712120       20.3646662930
  H        -4.6012334915        5.7652054681       20.6829956092
  O        -5.4437317012       -1.5490534369       25.7629178085
  H        -5.7978596765       -0.7460686369       26.2404199157
  H        -6.2796433536       -1.9421524948       25.4204762593
  O         1.1396778914       -4.1143836734       19.3988216013
  H         1.8842930465       -3.5026690659       19.5248733793
  H         0.2495268987       -3.6997005206       19.4601509992
  O         1.5438016270        0.2666653968       18.6335912337
  H         1.2681841042        1.1384370328       19.0652958891
  H         1.9502347586        0.4025490357       17.7625053658
  O        14.7546885463        1.4929491779       24.6902606203
  H        15.3418214094        1.8849279136       23.9997008192
  H        13.9872962045        1.2769804670       24.1051281159
  O         7.4914733672       -3.9383810700       14.8977554052
  H         7.9236099620       -4.4212845413       14.1553157292
  H         7.1793638950       -3.1220327246       14.4631230777
  O         5.5192936526        1.8966749928       26.0291086632
  H         6.1877840616        1.4944814049       26.7026727038
  H         4.7547244959        2.2130214611       26.5543406905
  O         3.3281921600       -1.5116480289       19.7600635262
  H         2.5986369811       -0.8724403485       19.6058116998
  H         4.0388186080       -0.8736335723       19.9285033850
  O         3.3421490804       -7.4528919322       23.8586234454
  H         2.9146384302       -6.5420265247       23.6957498172
  H         2.7959086871       -7.8850756250       24.5699804048
  O         8.2988164661        3.5095705650       11.3413583547
  H         9.0272873457        2.9110007944       11.0835326238
  H         8.4889031065        4.3689565205       10.8756559116
  O         1.5506099785        4.0099854308       25.3001676922
  H         1.8975599905        3.0934141795       25.3277296080
  H         1.3749386414        4.4138565745       26.2217372180
  O         9.9203228385       -0.2775200398       27.6551961777
  H        10.0290412688       -0.6532018914       26.7698509666
  H         9.7590253631       -1.0161843393       28.3216441249
  O         0.7614211432       -7.4188764612       15.1555221338
  H         1.1478616898       -7.2491337259       16.0282733059
  H        -0.1643394683       -7.6210377386       15.1978835250
  O         0.2523236694        0.7898669369       22.7089108934
  H         0.7024879082        1.1038768022       21.9099989891
  H         0.4633992546       -0.1580082463       22.7333215754
  O         9.5087894535       -4.6613365960       12.8564016153
  H        10.0758753128       -5.1690046186       13.5171983291
  H        10.1182547269       -4.0503823691       12.3978472124
  O         7.2892821219      -11.5996274669       27.6688484593
  H         6.7307370058      -12.0471416876       28.3535305821
  H         8.2595794114      -11.8226260284       27.7682952977
  O         5.4544440457       -4.1524423236       18.2861754856
  H         4.8885547654       -3.4605356988       17.8889142110
  H         6.3323122747       -3.6634724675       18.2549216627
  O         0.3367010046       -7.7605209587       20.5408606703
  H         0.2929439016       -7.5876442005       21.5153458895
  H         0.2046239622       -6.8258120417       20.1785020910
  O        -0.5432837494      -10.9292285684       26.2153109358
  H        -0.8721627859      -10.2703078353       26.9066480065
  H         0.2219538816      -10.4813083589       25.8020911328
  O        -1.8133207371       -2.7799090041       23.2521512121
  H        -2.5121390416       -2.0722445336       23.4065497781
  H        -0.8317662904       -2.5441286049       23.3453897874
  O        -2.8625841560       -2.9264564847       28.6886214185
  H        -3.5722896934       -3.2851227702       28.1428606724
  H        -2.3225669000       -3.6675898469       29.0729478387
  O         7.3621486625       -9.3819310030       17.0053760519
  H         7.4495728509       -8.4224817962       16.8214961741
  H         7.3225064100       -9.8675314420       16.1493813900
  O        -1.2074452419       -0.6694534289       18.4950098789
  H        -1.8533301450        0.0308383384       18.2619771788
  H        -0.3256851468       -0.2526582519       18.3467099252
  O        10.9165912993       -5.7116120828       19.6401773391
  H         9.9442216984       -5.9773806526       19.8520744199
  H        10.9714514464       -4.7563336478       19.9289386665
  O        10.6312701096        2.7430533133       15.6648408383
  H         9.9365054976        3.0939472399       15.0269121991
  H        10.1729851939        2.0242849639       16.1201562542
  O         6.8471785926       -6.3452558292       21.9140450265
  H         6.5696088885       -6.2240857374       22.9278391819
  H         6.0592339994       -6.0852847952       21.3837158071
  O         7.6598941574       -2.7939930093       18.4763062320
  H         8.4348624824       -2.9063407721       17.8310568023
  H         7.7580559979       -3.1748411684       19.4495885163
  O         3.0588329656       -4.0980652661       26.8638545943
  H         3.5308948441       -3.6012294959       26.1890479659
  H         3.7660245652       -4.5638068213       27.3782126780
  O         9.9363419631       -9.0808788454       20.3113173761
  H        10.8813400936       -8.7692705158       20.3901961089
  H         9.7414785826       -9.8552849631       19.7161844588
  O        -3.7685252977       -1.0838185423       11.2429123647
  H        -4.2983954454       -1.3186013768       12.1195090153
  H        -3.2646118103       -0.2471469334       11.3978718153
  O         6.1608284307        4.9460246567       27.0367507230
  H         5.6960457518        5.6020423324       27.6690028202
  H         5.4996891425        4.2806747619       26.8000878170
  O         5.5613242634        0.1749888952       29.9040427488
  H         5.4106393896       -0.7622685377       30.0583839007
  H         6.2005031596        0.3852081176       30.6875034388
  O         4.2688643570        3.0111025485       17.8447707654
  H         5.2571456036        2.9253187245       18.0094180541
  H         3.8666532960        3.6809516867       18.5067533711
  O         9.3559095826        1.5230010550       18.3957300577
  H         8.6497895313        0.9031522717       18.6375994196
  H         8.7781714960        2.1930074883       17.9132678106
  O        15.3812533271        0.7658698519       16.3738736531
  H        15.4966570115        1.6875636131       16.0345301640
  H        16.2119186467        0.6227457795       16.8766795191
  O         7.3057250281       -0.1635428177       19.5376607074
  H         7.6270760159       -1.0851079753       19.2806439885
  H         7.1566613656       -0.1352460732       20.5136452811
  O        10.2653368021        1.1088513921       23.9871688267
  H        10.7548640356        1.2133256009       24.8742346143
  H        11.0298106432        0.9922412117       23.4192208308
  O         1.3478173537        2.1489269527       20.5602130269
  H         2.2581543775        2.3825917369       20.9149911532
  H         0.8272106527        2.9392155825       20.3305554343
  O        -5.9870202769       -0.3443318851       22.1313596956
  H        -5.2265091470       -0.6671377065       22.5680018114
  H        -6.2140423862        0.4120951910       22.6913434300
  O        11.4759650583       -4.8764197319       16.8187311751
  H        11.5309522527       -5.2259424639       17.7445692750
  H        12.1175884314       -4.1384970052       16.6328931973
  O         3.3765393020       -2.9127006268       22.6933820445
  H         3.2346087863       -2.4081913508       21.8378909256
  H         2.7962300623       -3.6623012073       22.7077136917
  O        -1.5466931597       -2.8328108893       20.2602049974
  H        -1.5150667480       -2.0078374074       19.6877118992
  H        -1.5460158981       -2.6520099095       21.2188239977
  O         3.7716928815        3.3665931068       27.6711823439
  H         4.0036346723        3.4723866352       28.6156667346
  H         3.0946544708        4.0591561831       27.4589140355
  O         3.0898061253        5.0148356106       19.6345016917
  H         3.4707842718        5.7968661127       20.1697126064
  H         2.2571133622        4.7279508901       20.1318702881
  O         0.4668379613       -4.5497362305       25.9373581183
  H         1.3015764245       -4.3175864750       26.4104946214
  H         0.0836126470       -5.2224304005       26.5245328074
  O         0.8353234739       -1.6930430196       23.4674637926
  H         1.6881024602       -2.2182939802       23.4662206154
  H         0.6654155553       -1.5419956490       24.4452407472
  O        -3.0489862502       -6.4325409948       23.2654633142
  H        -3.1383630965       -5.7389431773       23.9414833437
  H        -3.2845223184       -6.1266172497       22.4082493551
  O         5.9363837640        2.1367923420       23.0141288158
  H         5.9129216270        2.2451633421       23.9951790070
  H         6.8095580723        2.6339780754       22.8266350258
  O         5.0358701802       -3.4966239653       24.9555560988
  H         4.4777725366       -3.2877600156       24.1023135065
  H         5.4293556830       -4.3947541745       24.7285349501
  O        12.0411536981       -6.6037533694       10.7589430164
  H        11.0642139932       -6.7201270723       10.6870453250
  H        12.4312896724       -7.1326729658       11.4940616341
  O         1.5363726816       -4.8629297164       11.0420952159
  H         1.3466537240       -4.9481962269       12.0244816538
  H         0.6672469002       -5.1688060322       10.6728062178
  O         1.9938498351       -6.4502700150       17.4808341848
  H         2.3885370866       -6.8010500350       18.3817835020
  H         1.3534160135       -5.7219232860       17.7394447955
  N         7.8230312121       -3.5174827877       21.1872779980
  H         8.6598562856       -3.0922016222       21.6316546543
  H         7.0036117720       -3.1181565952       21.6656451126
  H         7.8078586641       -4.4852781111       21.3952499206
