     193
 CELL 12.4294 12.4294 12.4294 90.0 90.0 90.0 i =    35720, time =    17860.000, E =     -1096.5482307202
  O        -2.7977176193        0.4137140591       16.2132669215
  H        -2.4241648121        0.0516514754       15.3983239822
  H        -3.6935161115        0.6199893487       15.9057414789
  O         0.2459381860       -8.1767917719       10.9525139347
  H         0.8782357916       -8.9657858480       11.2037167027
  H         0.2216419997       -7.6631041470       11.7366636975
  O         0.2633804701       -6.7537249958       13.2553731338
  H         0.5102847752       -7.1015325657       14.0898911173
  H        -0.6953151974       -6.4891997752       13.4997742021
  O        -1.3361692923       -0.1632118188       13.7848479962
  H        -0.5993558667        0.4595853398       13.8094760746
  H        -1.2040245264       -0.9667514288       13.2480958956
  O       -10.3575641854       -4.0304882947        9.6761105238
  H       -11.0865052237       -3.4708841212       10.0753477785
  H       -10.3544379724       -3.6110102104        8.7816112032
  O         3.9161712112       -5.6129223340       18.7115772494
  H         3.8701970030       -5.3947541441       17.7630274149
  H         3.3336587003       -6.3346432641       18.8948577249
  O        -3.1285338088       -1.1036867054        6.0038668434
  H        -3.4573144709       -0.5990933656        6.7460249299
  H        -3.2118086740       -0.5004695069        5.1373832075
  O         4.2220403139        4.2932329756       15.3590279223
  H         3.3445021574        4.5988614154       15.6575276539
  H         4.0535194366        3.7218575633       14.5499823324
  O        -3.0459510679       -7.9269854661        2.8104294285
  H        -2.5067806131       -8.6768387962        3.0604416197
  H        -3.5729756960       -7.6489412064        3.5844135854
  O        -0.3635055677       -1.3753821698        5.8752064155
  H        -1.2737996002       -1.1544825128        6.1198952576
  H        -0.3779218480       -1.7187939021        4.9308273627
  O         1.1972956552       -4.5803450614        5.0718159029
  H         1.7386084969       -4.0882477337        5.7437301764
  H         0.4925105866       -4.9386696877        5.6753391277
  O       -10.0208796139        4.7795004770        7.0078230166
  H        -9.4637182645        3.9214511558        7.1040285579
  H       -10.4547821556        5.1542903384        7.8292016220
  O       -11.1405360218       -1.9966365188       13.7482412733
  H       -10.6131941620       -1.3478500376       14.4231420327
  H       -10.6390346883       -1.9650668604       12.8939106043
  O        -1.8054370215       -3.5739841217        8.1218683847
  H        -1.3155811054       -2.9176247491        7.5277418660
  H        -2.7490492833       -3.2338517676        8.0390323511
  O        -1.5923136178        1.4308195041        8.5867761700
  H        -1.8660630953        2.0777644678        9.3580606590
  H        -1.2933059573        2.0747904738        7.8518577111
  O         8.2187855834       -0.3928489630       10.8888790500
  H         8.4372986435        0.0334009168        9.9939143664
  H         8.7580127755       -1.1870318242       11.1584054644
  O         3.8852639950       -4.9000834470        3.6591663518
  H         4.4323158362       -5.4514595683        3.0774115491
  H         3.0956106138       -4.6553067640        2.9911759703
  O         1.0214129039        1.9718164002       14.4643316792
  H         1.4778191742        1.3566836930       15.0559402605
  H         0.4040246648        2.5292489251       15.0380999859
  O         0.3231462325       -0.1450099370       10.2275260691
  H        -0.1642318067        0.5534049315        9.8112110878
  H         1.2274414116        0.1003554564       10.0783322320
  O        -2.3124115264       -5.7164632013       13.7577203056
  H        -2.4204394220       -4.9703390920       14.3659723368
  H        -2.7837767118       -6.5085081010       14.0948213614
  O         3.8955419069        3.7281541848        0.1617939719
  H         4.6983232384        3.3648767364       -0.2992320651
  H         3.8064619587        4.7007713365       -0.0754563618
  O        -3.4994187956        1.5318860610       12.5969973401
  H        -3.8559161179        0.8446890953       11.9414059301
  H        -2.5639303259        1.1757740342       12.8357997490
  O         5.2824459801       -0.3259310201       14.7541215595
  H         6.0844581680        0.2313582565       14.8544093251
  H         5.4631306245       -1.1296220436       15.2647226134
  O        -4.2935664029       -7.7461249210        4.9463471823
  H        -4.6261927782       -6.8304387476        5.2669785100
  H        -3.6840493668       -8.1160905445        5.6401051333
  O        -5.2954688472        2.4256985789        8.5127130885
  H        -6.0404488562        3.0065752388        8.1301182837
  H        -5.4644723454        2.4951759281        9.4892836289
  O         5.8249678275       -6.0068598754        1.7892286779
  H         5.3972824753       -6.7941004400        2.2358557308
  H         5.2383688548       -5.8206567654        1.0144558963
  O         2.6392351522      -12.6899601238       15.4232542154
  H         2.6259893917      -12.8697278273       16.3774395406
  H         3.5644440955      -12.5960172701       15.0639414206
  O         1.9780319710       -2.6934369323        7.2882062662
  H         1.2698742108       -2.1133972444        6.9478512287
  H         2.8251769551       -2.4581605928        6.8289015018
  O        -4.9989105722       -5.9757624996        9.0186259833
  H        -4.9349827902       -5.3224889834        9.6871886217
  H        -4.1025436903       -6.3833683323        9.1567497167
  O        -4.9954095721      -10.8717062907       14.8898757542
  H        -5.3029418920       -9.9885423637       15.2604531197
  H        -4.6863697679      -10.6391507683       13.9996496842
  O        -5.0722540035       -3.6781523580       10.8669960053
  H        -4.2144585850       -3.5006420840       11.1982815332
  H        -5.6846035547       -3.3238442379       11.5691743034
  O        -6.6729703671       -2.6943377067       16.2310420126
  H        -7.2245172863       -3.5042144363       16.3964571828
  H        -5.8037305658       -2.8787936998       16.6912076935
  O         0.5777908154       -9.1226810531        5.7872387773
  H         1.2165319582       -8.4922761424        6.1331053206
  H         1.0459138997       -9.9202518272        5.6064714857
  O        -3.8100171208        0.2679241977        8.4020551396
  H        -4.4100769009        1.0390142301        8.2201097889
  H        -2.8573722107        0.6241997851        8.4265430675
  O         6.9493488227       -5.5099535897        6.3248331381
  H         5.9715132068       -5.7347122682        6.3198205533
  H         7.2130397386       -5.5116747328        7.2650563339
  O         5.8154815014        3.2976272268        5.0088966499
  H         5.1789364466        3.6582973195        4.3592727271
  H         6.5580927116        3.8650866387        5.0687108660
  O         2.0420696078       -4.7080106466       13.4947573190
  H         1.1451261562       -5.1565327799       13.5023814772
  H         1.8184159352       -3.7734318240       13.6142173590
  O         4.5090887658       -2.2080760155        6.5180960848
  H         4.9129364227       -2.4378836772        5.6486405615
  H         4.8330789771       -2.8339769329        7.2469421007
  O        -0.2954791687       -2.5262782080       15.8059040310
  H         0.1550688518       -2.2259366367       14.9868497077
  H         0.2419098892       -3.2878345167       16.1041558072
  O         4.9151690170       -7.0034382676        9.1508185179
  H         5.8753358271       -6.6623871447        8.9572687538
  H         4.6493067792       -7.6099674292        8.4523949443
  O        -6.6815942525       -2.9369854016        0.4696464573
  H        -7.6406605227       -2.8299574248        0.2612273137
  H        -6.5356562381       -3.1900259168        1.4229582987
  O         1.6939634280        5.4396179397       16.1200125518
  H         1.6926023766        6.2253941593       16.7225998345
  H         1.2482293700        4.7969880240       16.7236522356
  O         1.7189521139        0.5447010784       17.8834594013
  H         0.8561924208        0.1460176024       18.0615007080
  H         2.2888298767        0.4369704242       18.6271449172
  O        -2.5668291092        5.5031828750        9.4609523214
  H        -1.7879007814        6.0648262094        9.3113880422
  H        -2.3872495321        4.6934967793        9.9794527125
  O         4.2085881636        3.0241838591        7.1909086127
  H         3.9866151530        2.0783286409        7.3219197990
  H         4.7989899342        3.0637398465        6.4175622635
  O        10.1467847074        4.1564963062        7.0253903318
  H        10.0316657231        4.6920028680        7.7826193863
  H        10.6877359999        4.7789048506        6.5388725116
  O         3.8653309578        0.3328272840        7.6240082592
  H         4.1942741461       -0.4547353716        7.1927505000
  H         3.6661882472        0.1093781445        8.5645693619
  O         5.7414055399        0.0595991958       11.9605559133
  H         5.4959356245       -0.2923506029       12.8848055468
  H         6.5031960563       -0.4011836724       11.5244322934
  O        -2.0987727056        3.0048138332       10.9197588570
  H        -1.2488926688        3.4441898612       11.2280912549
  H        -2.6390461387        2.7708074703       11.6884392028
  O        -9.0959814510        0.3052058976       10.5514668675
  H        -8.1509831543        0.2763355657       10.8364891592
  H        -9.5879281754        1.0012392574       11.1127419848
  O         8.0835055957       -3.3540732406        4.8026664664
  H         7.7374512260       -4.0254531790        5.4437615500
  H         8.6582839624       -2.6958957633        5.3401480263
  O        -0.3412988581       -2.8593681043       10.4629067458
  H        -0.2069257629       -1.9191828543       10.3839899592
  H        -0.9032012388       -3.0729894196        9.7286951552
  O        -4.3155777933       -2.8307769080        8.2001228577
  H        -4.2969022161       -1.8569016080        8.1764708210
  H        -4.6160563178       -3.0744439014        9.1496393218
  O        -1.0435731874        2.8505755819       16.0461188356
  H        -0.6430530686        3.2247780931       16.9227820063
  H        -1.6907535605        2.1027245888       16.3120665224
  O         0.5483279570        6.1644241209        8.9145479196
  H         1.1191811483        6.9056078267        9.2869138385
  H         0.4967854650        5.5068048367        9.5928391966
  O        -2.8394868104       -3.2367832847       14.9020301039
  H        -2.0288750151       -2.8759489226       15.3218584854
  H        -3.4897669953       -3.2465679238       15.6206225997
  O        -2.8285516516       -2.3400229962       11.9579774416
  H        -1.8880282132       -2.6347440381       11.6666718855
  H        -2.8281694138       -2.6749505512       12.8755657882
  O        -8.2850881705       -6.1308309826       11.8452399173
  H        -9.1703478582       -5.7100712414       11.8637959423
  H        -8.1055160791       -6.3615396357       10.8704769265
  O         1.8519577998        2.2565759211       11.9163616865
  H         1.4967437861        2.0527960611       12.8432452995
  H         2.6061102712        2.9258953013       12.0421227779
  O         3.2362426345       -2.2238255419       11.6890015904
  H         3.2216236702       -1.3248714449       11.2756500709
  H         2.8959951749       -2.9254986062       11.0668590865
  O         6.3904584850       -9.4985940694       -1.2403902461
  H         7.1211775310       -8.9187607584       -0.8069142583
  H         6.5030971084      -10.3394484636       -0.8360231932
  O        -4.6969465586       -7.8235839423        0.3996238253
  H        -5.2580326831       -6.9923101963        0.5573436645
  H        -4.1477714982       -8.0518761627        1.2780206645
  O        -0.8637613164       -5.7564343016        6.6808038069
  H        -0.2360338375       -6.0754884651        7.4144329662
  H        -1.3837305795       -5.0722467674        7.0956856735
  N         4.8633425646       -3.9000604185        8.7299977594
  H         4.3995132808       -3.6804534070        9.6058029110
  H         4.4905411246       -4.7906946873        8.4802698778
  H         5.8851006178       -3.9276964623        9.0199297962
