     193
 CELL 12.4294 12.4294 12.4294 90.0 90.0 90.0 i =    67320, time =    33660.000, E =     -1096.5417905439
  O         1.9810007692       -2.5867294956       32.4871806174
  H         2.9608651313       -2.7060236715       32.6038968394
  H         1.8539634889       -1.6015002346       32.6493977322
  O         4.7710906926      -10.0651701661       29.5291587023
  H         5.6209787616      -10.5114890271       29.8425394578
  H         4.7222872080       -9.4235160109       30.2359643442
  O         7.3003323373       -5.3180532426       30.8895526991
  H         8.2071587275       -5.5601904036       30.9656065906
  H         6.9456314988       -5.9096193029       30.1882278343
  O         4.7421532182       -1.1856477133       32.2440317500
  H         4.6834497152       -0.4378290812       32.9300844375
  H         5.5956632559       -1.6801899958       32.4662471362
  O        -4.9844561486       -7.0561470235       27.4492936277
  H        -5.4805419914       -6.2125809599       27.7314479833
  H        -4.4821854955       -7.0205641554       26.5860182350
  O        11.5150373487       -4.9659817011       37.2085149549
  H        10.7798160469       -5.4023726805       36.6761699991
  H        11.5583903762       -5.5925559302       37.9877070923
  O         4.4181305826       -2.7450621658       22.5271991659
  H         3.5454483761       -2.2702705611       22.6487337523
  H         5.0489178138       -2.1018674722       22.0866604956
  O        11.4682726673        2.9672782103       33.3276003343
  H        10.5820135192        2.7982241662       33.7948475194
  H        11.2917419815        2.6032959923       32.3920881686
  O        -0.9687420678       -6.5823912451       21.4633643059
  H        -0.2587237358       -5.9235698104       21.6693583652
  H        -0.5305815138       -7.3944216405       21.1340851067
  O         5.8861394233       -4.1549585394       24.8552611086
  H         5.6602523386       -3.5929154723       24.0647286502
  H         6.0704556897       -5.0697399737       24.4976399452
  O         6.3993739889       -6.7638468966       24.0236406704
  H         7.2973176244       -7.1561736856       23.9765807292
  H         5.9004902150       -7.4720194676       24.3911217005
  O        -1.0961213777        5.1120364090       26.7224033510
  H        -0.4312701162        4.5037861405       26.3490962644
  H        -2.0180428421        4.8509823557       26.2798748498
  O        -5.1703749903       -2.1470151582       34.7891843481
  H        -4.6293335116       -1.3387117716       34.6029198186
  H        -4.5491812847       -2.7186730388       35.2592248982
  O         3.5130899272       -4.1330641082       26.2307767522
  H         4.1874209074       -4.2414745871       25.5008493101
  H         3.6701451522       -3.1878983651       26.6517134044
  O         3.5214283974        0.0020036966       25.5477188348
  H         3.2195929770        0.7303919771       26.1675163210
  H         4.3989560647        0.1766193191       25.1187002626
  O        15.5232244395       -0.2460318666       30.2230056477
  H        15.6407647962        0.6916476498       30.3868905978
  H        16.1578718315       -0.7015736475       30.8109685271
  O         9.5942689653       -6.2475876140       23.2438126002
  H        10.2672857068       -6.7098607537       22.5858750890
  H         8.7802358202       -6.1031402763       22.6651310968
  O         6.6811282791        2.7909165707       33.0096025975
  H         7.0594347485        2.3039214341       32.2773870551
  H         6.0083009183        2.1722433026       33.3443116030
  O         4.1050633253       -1.7118800310       27.9201586470
  H         4.1004429003       -1.0820113174       27.1254874230
  H         4.3122183187       -1.1954088775       28.7312455699
  O         5.4889843206       -7.6868684577       31.2975439974
  H         5.1512612868       -6.9269112371       31.8169405975
  H         6.0749644548       -8.1696409206       31.9527456498
  O        11.1347542925        2.2846676677       18.2883614057
  H        10.9802828211        1.5758102196       17.6081521476
  H        11.2820459049        3.1938977597       17.8706302229
  O         1.4836613353        2.2612400713       31.3729716732
  H         1.5991498746        3.2226073590       31.4712804549
  H         0.5587244598        2.2306388757       30.9867267795
  O         9.0884023274       -0.0554563305       33.8639539484
  H         8.6956415463        0.8064403062       34.1992879610
  H         9.8919522301       -0.2965726552       34.4197708799
  O         3.2597700281       -9.4572847774       22.8046312459
  H         3.2653566869       -8.4938719665       22.6867174658
  H         2.3092782135       -9.6230316080       22.9754181929
  O         0.9732072734       -0.9440913271       28.3932248493
  H         1.7050401971       -0.3231682300       28.2507049974
  H         1.3180240421       -1.7391860983       28.8835580451
  O        10.3032580713       -5.9259863428       18.8622983194
  H        10.1801635625       -6.0729404162       19.8379999955
  H        10.7529540004       -5.0162449314       18.7597311112
  O         7.9513071678      -10.0265299888       36.9169585707
  H         6.9753963617       -9.9778930598       36.9165083975
  H         8.2481435577      -10.9155798036       37.3430032115
  O         9.4590365117       -3.2437936975       23.6358413681
  H         9.8077309166       -4.1434833429       23.5079913161
  H         9.5039547996       -3.0863523398       24.6573131648
  O         3.3064801086       -6.8366760125       25.4842689923
  H         3.7537208666       -7.3839259931       26.1440170367
  H         3.3880159979       -5.9028326114       25.8376892368
  O         1.5259279813      -12.5224930984       32.8497792994
  H         1.2346929456      -12.1991485635       33.7794756105
  H         1.4904168707      -11.6804035861       32.3370818985
  O        -0.9697627077       -3.5468182941       30.7406862817
  H        -0.9829087895       -2.9128303488       31.4947118836
  H        -0.0051111148       -3.6127509845       30.5131065852
  O        -0.9074790013       -1.4672406971       35.2627053446
  H        -0.1356240563       -1.2265188796       35.7643059020
  H        -1.6316733930       -1.8236466452       35.8196511479
  O         8.9990121117       -7.7021875946       25.3975842923
  H         9.2791002926       -7.1370130476       24.6131722540
  H         8.7431133850       -8.5663063942       25.1413031263
  O         1.9915020611       -1.3739658459       23.1632154219
  H         1.8575089164       -2.2063087372       23.6356774097
  H         2.2603646317       -0.7283659006       23.8435991580
  O        13.7621445126       -3.4362035055       24.7144079589
  H        13.1435216908       -4.2334438847       24.6933971772
  H        14.4783039992       -3.7253775963       25.2624882926
  O        13.0626653768        1.7398252337       22.8715652871
  H        12.4092681672        2.0286372191       22.1783360151
  H        12.5929268032        1.6131435541       23.7353703358
  O         8.8664514155       -8.8059186488       28.8286777038
  H         9.6134446972       -8.2191412593       29.0460672073
  H         8.1949808376       -8.1810895362       28.3802301927
  O         9.6611425388       -2.2101352548       26.1887448331
  H        10.5900927182       -1.8901237641       26.1971131752
  H         9.6655402721       -2.9395928644       26.8865391029
  O         7.5317800405       -5.7144336550       34.1074818308
  H         7.3818777575       -5.6147036444       33.1910921261
  H         6.7025330269       -6.0404763139       34.4707226403
  O        13.5574029106       -8.7275165676       25.9441066103
  H        14.2293911505       -8.2169509972       25.3663508602
  H        13.4305163809       -9.6462503149       25.6293345716
  O        -3.3980453603       -0.8115517827       18.4573303736
  H        -4.0305693122       -1.5715429161       18.5463611436
  H        -2.9797132132       -0.8266180116       19.3266949399
  O         8.9707446748        3.2140466731       34.4486495172
  H         8.5388001391        2.9158498008       35.2931302267
  H         8.1682893466        3.2719046176       33.8491357506
  O         7.9172927667        0.0424793857       38.5687390543
  H         8.4579994092       -0.8199831623       38.5379678783
  H         8.5379981999        0.6491719593       39.0498438767
  O         5.3713117610        2.8386997073       25.0379118185
  H         4.5934034211        2.4320588372       24.6685029505
  H         5.1791560748        3.0979191575       26.0338092089
  O        12.5667695097        1.2516102405       25.7245341052
  H        12.4092334300        0.2310362629       25.6240793538
  H        11.6842960059        1.5250750055       26.0356468225
  O        18.3756877176       -0.1384842118       24.0717026157
  H        19.1158576242        0.1342019711       24.7232269859
  H        18.6715018923       -1.0115495301       23.8078010293
  O         9.9338717958        1.7601221609       26.9286444192
  H         9.6892163405        2.5615050212       27.5245076390
  H        10.2882773096        1.0688484753       27.5947149303
  O        11.4250019930       -1.4417974668       32.5506261591
  H        11.5367739635       -1.5989771306       33.5213331965
  H        12.1388215231       -0.7594385841       32.4343878021
  O         2.4297754470        1.6882514162       27.6990943157
  H         2.8103665386        2.0305425742       28.4941829507
  H         1.8922447287        2.4191834406       27.3159979088
  O        -1.4019015360        0.1280940727       28.9941956534
  H        -0.5001494011       -0.3238039165       28.8226912059
  H        -1.9681488766       -0.4856075891       29.5712314752
  O        13.4327052188       -4.6270719827       21.6804400537
  H        13.7725121134       -4.2130644547       22.5580126203
  H        13.5803665045       -3.8727988478       21.0082239329
  O         5.7483030325       -4.9953834770       28.2453287412
  H         5.5747503998       -4.1641385329       27.6849682495
  H         4.9148471339       -5.2881887588       28.6723512113
  O        -0.1970315759       -1.5503664700       26.0799690460
  H         0.2781565947       -1.3923039666       26.9653854965
  H         0.3158928614       -2.1553476315       25.5399469391
  O         5.0114485855        1.0454553346       34.0971030123
  H         5.4453162855        0.9021210107       34.9665023983
  H         4.3272596063        1.7356588631       34.3272045821
  O         4.9732262795        4.1066385204       27.3458145731
  H         5.8647476703        4.4806311202       27.4445751433
  H         4.9949739535        3.5099520042       28.1486285078
  O         4.6525033044       -5.1998836140       32.9404671735
  H         4.7847405453       -4.3143508518       33.3197408710
  H         4.2288858194       -5.6991948520       33.7370264034
  O         1.6358625141       -3.1269624579       29.7827173492
  H         2.3480191228       -3.7230767108       29.4770056016
  H         1.9175535537       -2.8687156036       30.6968743411
  O        -0.8937419688       -7.5403493355       29.5552278773
  H        -1.3939806681       -6.9051815410       30.1111209903
  H        -0.8961923723       -7.2338315415       28.5963514773
  O         7.4357197536        1.7023997703       30.6385014099
  H         7.9761675123        0.8541751938       30.5958638977
  H         8.0352832794        2.4095383894       30.2194902452
  O         7.0876851907       -2.7679941692       32.0940906932
  H         6.9547255657       -3.5498766840       31.5217672470
  H         7.3360051941       -3.1421648809       32.9436915205
  O        13.6936758222       -6.6249212014       18.7868516357
  H        13.2856199707       -5.9366660479       19.3173279635
  H        13.0006739248       -7.0200331471       18.2482381814
  O         3.6449690376       -5.1000475736       17.7314209275
  H         3.9525772975       -5.1349209528       18.6965978295
  H         2.8924293552       -5.8068151348       17.7396855425
  O         3.2638621577       -6.6509735828       22.6926923103
  H         3.6885562000       -6.5136700841       23.5898479373
  H         2.3753296932       -6.3061743446       22.8341034988
  N         9.5685563615       -4.2114809977       28.2540571481
  H         9.6345255213       -5.1142806422       27.7482652020
  H        10.3826164792       -4.1949569188       28.9131584290
  H         8.7324360664       -4.1951125238       28.7900273330
