     193
 CELL 12.4294 12.4294 12.4294 90.0 90.0 90.0 i =    82920, time =    41460.000, E =     -1096.5524401901
  O         6.0946459884       -1.6298353123       40.3274440134
  H         5.5003183836       -1.8798651255       39.5688130624
  H         5.5124797216       -1.0666753967       40.8562950335
  O         6.6670081883       -7.0926724350       38.7018112839
  H         7.3721144221       -7.8642368069       38.6791850542
  H         7.3004872242       -6.4081824367       39.0704355979
  O        11.0509551771       -3.5942361177       40.5100299790
  H        11.8004522189       -3.4499467613       39.9179658785
  H        11.1394796563       -4.5444292298       40.8462617863
  O         8.4004965592        0.0464752556       40.1395983421
  H         7.5104735693       -0.3547629717       40.1533274678
  H         8.3267705013        0.9433214859       40.4655542373
  O        -3.3887467294       -6.3968030251       36.4392497882
  H        -3.2418222244       -5.6604049346       37.1257582763
  H        -2.9288188012       -6.1058932672       35.6040442285
  O        16.0024081397       -3.2812424596       47.6056225474
  H        16.5273448029       -2.4325166144       47.3310195107
  H        15.4695563198       -3.5111921226       46.7758939849
  O         7.1919966205       -0.6705684698       30.4174586737
  H         6.5306053944       -0.8336477753       31.1086709607
  H         7.9494682909       -1.2005808536       30.7279696392
  O        13.9267795324        3.9053943195       41.6503860051
  H        13.9686780209        4.8736216570       41.9459869828
  H        14.3069315476        3.9398790360       40.7336658263
  O         3.7872411627       -6.7482815573       31.9479143345
  H         4.2424167864       -6.3826541161       31.1385429691
  H         3.5592600570       -7.6536601226       31.6064132680
  O        10.5644606380       -2.8176395752       31.7116744313
  H        10.2417979502       -2.1847195368       30.9753743630
  H        10.0678248021       -3.6127985119       31.3498983898
  O         9.9620533477       -5.7228610639       33.8435942085
  H        10.7348062825       -6.0090800467       33.3165830044
  H         9.1075603890       -5.7381658372       33.3785258178
  O         1.4180322378        6.5981663283       35.0702034769
  H         2.3281214537        6.4100551027       34.9620091832
  H         1.0507193832        6.1557891317       34.2987473867
  O        -1.8746303871        0.3716271844       44.3937180401
  H        -1.5813494689       -0.1087518813       43.5929283185
  H        -1.3441437790        0.1204121194       45.1793098579
  O         7.7138241530       -2.6909858322       35.9954459245
  H         8.3359538497       -2.4988637511       35.2662847971
  H         7.2824328675       -1.8322723904       36.1898419881
  O         7.0072402991        2.0301905947       36.1394820459
  H         6.4642481960        2.8646210862       36.0008961530
  H         7.8740176680        2.2962225267       35.7748141545
  O        16.6131942500       -1.5490392448       38.4795637305
  H        16.2436035746       -0.7165660576       38.8511219753
  H        15.8428735827       -1.8089515114       37.9178615608
  O        15.3554565052       -3.9074924150       32.5658024275
  H        14.6502912405       -3.3882496730       32.1358861905
  H        15.1559780216       -4.8633067699       32.5441876204
  O         9.5759287600        3.2760322369       41.3799977050
  H         9.3899183785        3.1402081596       40.3882810063
  H         8.8940735317        2.8333401355       41.9058589470
  O         6.0057587212       -0.5416209176       36.3557475061
  H         6.3646070182        0.4028545124       36.2934557812
  H         5.6582183342       -0.5941586487       37.2703152808
  O        10.5636606259       -6.6217518386       41.6619320031
  H         9.7999471363       -6.0825116308       42.1001354076
  H        10.3680228671       -7.5544002696       41.6499715452
  O        14.6233669935        4.4408497703       26.5389750363
  H        14.9408208416        3.7982457240       25.8586995021
  H        14.0067319057        5.0418915947       26.0087371209
  O         4.5255393415        4.9898511095       40.1811871699
  H         5.2822471978        4.9930785955       39.5406167262
  H         3.7009103256        4.9059883661       39.6170076272
  O        13.1624939002        0.0432337766       40.1596672296
  H        12.6750079786        0.8175380785       40.5178733956
  H        13.7712579122       -0.2747189002       40.9428971050
  O         5.0762687366      -10.0815474206       28.7926339813
  H         5.0262955051       -9.1113903096       28.5152548059
  H         4.9719721444      -10.0009641441       29.7724459319
  O         2.9365164521        2.1938014051       37.1737758919
  H         3.6994714755        2.7013255002       36.7919369951
  H         3.2102403355        1.6490298742       37.9169037839
  O        13.1082233019       -3.8487947878       26.6396284670
  H        13.8711005147       -3.9650367444       27.2560169465
  H        13.4691140585       -3.2905240836       25.8799953375
  O        11.3018420290       -9.3795696349       44.8720831506
  H        11.5612136845      -10.0217705459       44.1879142856
  H        10.3140944164       -9.3683232337       44.9695543565
  O        13.2192469979       -2.1887404727       32.0074825970
  H        12.3471201772       -2.6983728405       31.9376126320
  H        13.1322253014       -1.5848963329       32.7152331923
  O         6.6468386940       -5.1781690281       35.0706725763
  H         7.3302527614       -5.7044918027       35.6177249897
  H         6.7624261916       -4.2395649785       35.4495072397
  O         3.4477609360      -11.5272983826       39.4248067027
  H         2.4676508792      -11.4889012457       39.6748670769
  H         4.0104175382      -11.0270869780       40.1430274784
  O         2.1049886664       -2.4643539238       37.1598641977
  H         1.7128103456       -1.6085781558       36.9267842684
  H         2.5156879266       -2.8601475803       36.2958391941
  O         2.0041453789       -1.3620206236       42.1243181898
  H         2.8259588496       -0.9476311081       42.4721002940
  H         1.4475457798       -1.6365166191       42.9571977769
  O        12.3973978244       -6.8797199709       33.0527436478
  H        12.6605709298       -6.5538783825       32.1630125192
  H        12.0906372980       -7.7978157594       32.8551610941
  O         4.1727297138        0.0272172919       30.5457140737
  H         4.4997088901       -0.6189758128       31.1469313278
  H         4.2928667646        0.8704004026       31.0578947736
  O        17.3580619901       -0.9825164759       33.6343878988
  H        17.7395571877       -1.6782795720       33.0711976219
  H        18.0441786849       -0.8073941047       34.3363078064
  O        15.7865958886        2.7287636221       31.3186594086
  H        15.0079086700        2.8917618136       30.7476249890
  H        15.3242177603        2.7022605335       32.2299831330
  O        10.7772668516       -8.2184987778       37.6302929568
  H        11.4596205913       -7.5514367043       37.8897294202
  H        10.1095300601       -7.6483643566       37.1351044975
  O        12.1267982021       -0.8350987950       34.5012506081
  H        12.9372016857       -0.4297682550       34.8619095834
  H        12.1322522348       -1.8278315745       34.6097458264
  O        13.2345611603       -5.9943317714       42.8194490065
  H        13.8138340941       -5.4258886685       42.2860022172
  H        12.3735173030       -5.8872475057       42.3894921396
  O        16.5040340307       -6.3725036197       34.5822823426
  H        17.0758200030       -5.5825197699       34.6878281532
  H        16.5825273745       -6.5977841676       33.6245874379
  O        -2.2763887664       -1.1099554533       25.5681986901
  H        -2.6268744162       -0.7071781727       26.3603984372
  H        -1.2426601665       -1.0031006516       25.4714332973
  O        12.1720715788        2.0104429758       41.7698216042
  H        12.7936592819        2.8363423494       41.7795294747
  H        11.2590745386        2.4094578900       41.6592339488
  O         9.6662650292       -0.3073041908       47.9500937908
  H        10.6367455736       -0.4838369954       47.7044003292
  H         9.6387134133       -0.5249282067       48.9052903856
  O         7.9418368443        3.5759400698       32.8017457775
  H         7.8688796671        2.9184953068       32.0611877776
  H         8.4625025404        3.2166737852       33.5436131076
  O        14.0548546148        2.3096675833       33.5350081166
  H        14.1884126053        1.7348960192       34.3532057229
  H        13.3531403109        2.8930153129       33.9030290550
  O        20.7728918074       -1.6405456991       33.3099854059
  H        21.1291431017       -0.8129235250       33.6736887198
  H        21.4880286573       -2.0009618951       32.7950891166
  O        12.5764932989        2.4164568890       36.2485998570
  H        11.9279510446        3.0713516659       36.6169290071
  H        13.4711207310        2.8140638034       36.4914019026
  O        14.7717295022       -4.1214140320       41.3791747503
  H        15.6319055143       -4.6069857278       41.3489127355
  H        14.9301066907       -3.1520369309       41.5095231987
  O         5.0082135871        4.0312357896       36.3263203968
  H         5.3640991346        4.5202921266       37.1102916458
  H         4.7678770485        4.7927903215       35.7148560805
  O         0.2847237191       -0.4294314521       37.5095487974
  H        -0.0196107784        0.3692278963       37.0213321353
  H         0.6838017065       -0.2053547255       38.4310568833
  O        17.4673002509       -2.6439622307       31.1023902749
  H        16.8130965168       -3.2501979173       31.5046397425
  H        18.3045658307       -3.0464960599       30.8848457540
  O         9.4118646324       -3.8912087197       37.8725715309
  H         8.7922796865       -3.3738125989       37.2865146755
  H        10.0860010262       -3.3227462457       38.2925083932
  O         2.5690553536        0.1149897259       35.3551254785
  H         2.8601651871        0.7705470087       35.9716353538
  H         3.3319219576       -0.0855107867       34.8046090342
  O         8.2727784826        1.7273587252       43.0725325162
  H         9.0347856098        1.5282867685       43.6044160292
  H         7.8057077351        0.8381348573       42.9354721432
  O         9.4621892683        2.3982545134       35.1025299868
  H         9.5555293389        1.4246382845       35.1933299657
  H        10.3270339790        2.7372032291       35.3011226077
  O         8.7285023574       -5.0755839690       43.3245340603
  H         8.1284604435       -4.4912077640       42.8319710751
  H         8.1894507829       -5.5516489998       44.1046319480
  O         4.6047875102       -5.4867810325       41.9623262874
  H         5.4376614302       -4.9838163096       41.7946233248
  H         4.6826925849       -6.2611985573       41.3665769663
  O         0.6952427669       -6.2651927703       37.5805324046
  H         0.7912200366       -5.4094800367       38.1553291012
  H         1.0152578334       -6.0723358066       36.6499690151
  O         8.6903275565        3.0256705485       38.8901097465
  H         8.3196327036        2.2808547551       38.3127580129
  H         9.5064933173        3.4721615890       38.3957627887
  O        10.1019387435       -1.2909777865       41.8984878651
  H        10.4590349998       -2.0400007858       41.3655706099
  H         9.5875364977       -0.7269854831       41.2128025240
  O        20.8784845618       -5.4710095805       27.5468146302
  H        21.1881357200       -4.8409268925       26.8094582249
  H        21.7689836868       -5.8492663263       27.8529975266
  O         7.0359405887       -3.8674352081       29.1849719685
  H         7.7936334598       -4.2651722643       28.6719049481
  H         6.6886524178       -3.0309081896       28.7751644994
  O         7.2112597273       -6.2806600566       32.6901584999
  H         7.3766653573       -7.2587161258       32.8782835200
  H         6.8485300452       -5.8794444824       33.4990862101
  N        11.8251720610       -3.4048158430       35.2712662124
  H        12.3555802398       -4.1807425379       34.9665256074
  H        11.8019929541       -3.4454572539       36.3417227662
  H        10.8449152930       -3.6081814523       35.0631770756
