     193
 CELL 12.4294 12.4294 12.4294 90.0 90.0 90.0 i =    66120, time =    33060.000, E =     -1096.5148796889
  O         2.3022154357       -2.3051183231       32.5620012124
  H         3.1783244455       -1.9774780039       32.1671731508
  H         1.7243247583       -1.4922681539       32.6087376344
  O         4.8334352553       -9.1651294892       28.6442642731
  H         5.4914324194       -9.9167228537       28.8292323785
  H         4.8095945619       -8.5750349552       29.4211030018
  O         7.3369148514       -5.7707902880       30.7862496313
  H         8.1385073522       -6.2697394260       30.8498092018
  H         6.5429152629       -6.3799271244       30.5669801816
  O         4.6351625282       -1.0758000660       31.5580757583
  H         4.8970430920       -0.3649256720       32.2387644427
  H         5.4253389746       -1.6619198492       31.3054322967
  O        -6.1597418608       -6.7812137581       26.2554797254
  H        -6.4549525806       -5.9539677764       26.7294013523
  H        -5.7871866373       -6.4739718754       25.4269216535
  O        11.6963670077       -6.7441718032       36.1263375524
  H        11.0493977277       -6.1489934413       35.6061958478
  H        11.3768082695       -6.7817578395       37.0860454135
  O         4.7179389938       -2.5174118056       22.8257550338
  H         3.7627882953       -2.3565901686       22.6356779813
  H         5.2612256205       -2.5718118647       21.9749056168
  O        11.3690356748        3.5011819467       33.2330864371
  H        10.5220137051        3.9711914050       33.0928598590
  H        11.3794940449        3.0319588210       32.3441666461
  O         0.1793034946       -6.7977423218       19.7955559775
  H         0.4152842743       -6.1566620920       20.5155624067
  H        -0.2464483217       -7.5931248841       20.2678019808
  O         5.0558044951       -5.1716903229       24.1593736398
  H         4.8974435761       -4.3342391444       23.6292608718
  H         4.9641297403       -5.8781471793       23.4805897515
  O         6.7672209218       -6.7257790360       22.3659370641
  H         7.4426020541       -6.4829257467       23.0452981203
  H         6.4963937607       -7.6659632055       22.5719831725
  O        -1.5750592043        5.0449791882       26.3439012072
  H        -1.1129402792        4.1288784579       26.4319697622
  H        -2.4471492092        4.7312339138       25.9624684128
  O        -5.0368096814       -2.2856866811       33.0216022389
  H        -4.3724221315       -1.9470327294       33.7090105319
  H        -5.2034085804       -3.2075498736       33.3223159365
  O         3.1088221942       -4.9145306012       25.9103767399
  H         3.7350789675       -5.2207821374       25.1801560557
  H         3.3650372286       -4.0455986293       26.1214859787
  O         3.0529863572        0.2736504810       25.2283019691
  H         2.9764725504        0.7489268688       26.0816218107
  H         3.9430274913        0.4030755238       24.7636703340
  O        16.1646159561       -0.4849984203       28.9806442821
  H        16.5861811557        0.3937800229       28.7646848673
  H        16.4666695091       -0.5789543334       29.9040160112
  O        10.3211454650       -5.1809061260       21.8634451561
  H        10.1675267491       -5.3577830577       20.9223355103
  H         9.5396832448       -4.7177535788       22.1926864749
  O         6.4690368641        2.6483614151       32.0191372743
  H         6.8298590886        2.1146413680       31.2647567012
  H         6.0556161867        2.0578515454       32.6984232527
  O         3.9715937196       -2.2232517074       26.6368581167
  H         3.9230428717       -1.4865928364       26.0310347816
  H         4.0917166678       -1.7023804696       27.4534370224
  O         5.0437347161       -7.6359718964       30.7938002179
  H         4.4451560090       -7.0625970266       31.3213782051
  H         5.4842606425       -8.2775325394       31.3872220565
  O        11.2702615838        2.7213063936       18.1697501577
  H        10.9559412040        1.9268936846       17.7346189188
  H        10.9283486947        3.4523508922       17.5916111969
  O         1.8973200044        2.4952668579       31.3117482438
  H         1.0147835687        2.8284073264       31.0502008790
  H         2.1854962287        2.9604683738       32.1460509988
  O         9.3248420856       -0.4055706979       34.1384907100
  H         9.1424892045        0.4984257694       34.6149741225
  H         9.9661994909       -0.9175191899       34.6239268160
  O         3.0423021353       -9.2684754388       21.6701645389
  H         2.7665197101       -8.3598676904       22.0389943674
  H         2.2959236833       -9.8946444608       21.8533649309
  O         0.9329062838       -0.3652037487       28.1670161457
  H         1.5552680109        0.3328500367       28.0244795800
  H         1.2002002133       -0.8655132975       28.9469715708
  O        10.5483874927       -5.6152731741       18.3845917218
  H        11.3600332823       -5.9297560094       18.9159717764
  H        10.8336116674       -4.7215683241       18.1116846409
  O         8.2534129319      -10.4336127005       35.6055358204
  H         7.2915136818      -10.3537681882       35.3159639525
  H         8.2607561859      -11.2885424051       36.2177737138
  O         8.1893693046       -4.1615518154       23.3385456630
  H         7.4615539016       -4.4798827752       23.8794917557
  H         8.6791716851       -3.4789997893       23.9218537934
  O         2.6178669490       -7.7641738821       25.4263093136
  H         3.6033454752       -8.1873214581       25.3462323766
  H         2.7959435408       -6.9741875023       25.9955705796
  O         0.8266394206      -12.4439865579       32.5283661091
  H         0.6223701581      -11.8162477048       33.2684564352
  H         1.2770758674      -11.8163328829       31.9025923184
  O        -1.2613808926       -3.1394842987       30.1952734579
  H        -1.3754152783       -2.3705502688       30.8251208981
  H        -0.2499071875       -3.2545044711       30.0244285909
  O        -0.7040205673       -2.1243725395       34.5841449792
  H        -0.4185490671       -3.0414613755       34.3972864795
  H         0.0932522504       -1.7534538498       34.9538653608
  O         8.8163328947       -7.7166705533       24.2360052901
  H         9.6464402928       -7.7302905985       23.7984978185
  H         8.4496919454       -8.5924064686       24.0101300398
  O         1.9986119975       -1.7968626269       23.3847025627
  H         1.7509700740       -2.3261969848       24.1726432660
  H         2.2509583115       -0.9403630054       23.8017150738
  O        13.0257804905       -4.4032174456       24.6492780215
  H        12.7739379418       -5.3090849430       24.2817069925
  H        13.9309418200       -4.4585167778       25.0943960987
  O        12.8061249367        1.6572698715       22.2774839756
  H        12.0342075037        2.1697619349       21.9397437011
  H        12.5255322660        1.1250334920       23.0000121412
  O         8.0630945590       -8.3974106710       27.8484240834
  H         8.6459677318       -7.8513549610       28.4315465664
  H         7.4437562435       -7.7466597144       27.4020350719
  O         9.5752869497       -2.1920611045       24.6827866590
  H        10.3644674202       -2.1392069137       24.0269943755
  H         9.8845806514       -2.6339716538       25.5650655996
  O         6.3838306409       -4.5372376927       33.0458190797
  H         6.8405617074       -5.0732741128       32.3305337522
  H         6.3731961373       -5.1877909553       33.8225608794
  O        12.5190365269       -9.3908918321       26.0206027852
  H        13.1239117278       -8.9989976231       25.3755213603
  H        12.2168323739      -10.2001032344       25.5125574739
  O        -3.7569768668       -0.7517362809       17.1081336494
  H        -4.4411465428       -1.4018930824       17.4243135333
  H        -3.1776591973       -0.5626431694       17.9275005709
  O         8.7189583894        4.5719315111       32.9865667279
  H         8.1186022450        5.1926539267       33.4049794896
  H         8.1201644437        3.8978055582       32.6537829843
  O         8.2734909317        0.0843447819       37.3959161126
  H         8.8233597322       -0.7465863246       37.2597243631
  H         8.6155108258        0.6444733210       38.1408430727
  O         5.6061858976        3.2928179324       23.0200785609
  H         4.7152428706        3.1404223276       22.6845616926
  H         5.6088938840        3.2027821902       23.9889619294
  O        11.3720301585        0.9942727260       24.6446450268
  H        11.4838014666        0.0203464742       24.8402906534
  H        10.3912803010        1.2293316557       24.6434052498
  O        17.9837991736       -0.1454153864       24.0275671714
  H        18.7998700297       -0.0964124394       24.6011421534
  H        18.0108624493       -1.0799745773       23.6801147257
  O         9.2188103593        2.0096999126       26.4749661449
  H         8.5769209325        2.4919287094       27.0227971377
  H         9.8835617812        1.5959328501       27.0540908350
  O        10.6663753004       -0.6998178357       31.5596645719
  H        10.1190145167       -0.4385381773       32.3178870986
  H        11.5799092683       -0.4899853026       31.7862371492
  O         2.5653328757        1.9565038489       27.4189764613
  H         2.9780125656        2.4833355100       28.1451680568
  H         1.7440395814        2.4115188435       27.1277054306
  O        -1.5944969330        0.8334948799       28.4001027838
  H        -0.6539855316        0.4232857912       28.4383555501
  H        -2.2529366554        0.1575205735       28.6941236212
  O        13.9532328166       -4.4884836028       21.7069911759
  H        13.8207985303       -4.1672478774       22.5963151462
  H        14.3682380585       -3.6855802962       21.2474811499
  O         5.7342743988       -4.4491666288       27.7835907366
  H         5.4493542833       -3.7915622981       27.0952459542
  H         5.0615854921       -4.4129341797       28.5231360909
  O         0.1364741926       -1.4222668313       25.4706194340
  H         0.5554570390       -1.2132913592       26.3269069493
  H         0.1081125195       -2.4216401690       25.4897056133
  O         5.0550959942        1.0687570852       33.8584664049
  H         5.2316671042        0.7526042412       34.8025235660
  H         4.1845461508        1.5174165099       33.8461255866
  O         4.9933584126        3.3855076086       25.6671483784
  H         5.5104404377        4.2542363824       25.9381932620
  H         4.9132241908        3.0294136486       26.5471804875
  O         3.3685114581       -5.5757965769       32.0496165478
  H         3.7367114531       -4.6750479929       32.1886649493
  H         2.5868428356       -5.6441187658       32.6271224744
  O         1.3911295357       -2.7939971357       29.9981582934
  H         2.1589233971       -3.3141013795       29.5844353690
  H         1.7439603064       -2.5522970808       30.8843545091
  O        -2.1704178124       -7.6586206590       29.2085072329
  H        -2.1072493067       -6.7486637380       29.6679562188
  H        -1.6622751409       -7.3776558347       28.3617971743
  O         7.2678956882        1.6445192297       29.5084118717
  H         7.7135894082        0.7891720044       29.2929742236
  H         7.6651896410        2.2659965615       28.9237552611
  O         6.9383350091       -2.4968826705       30.5568631349
  H         7.0653491465       -3.4432944063       30.2877236660
  H         7.3825814427       -2.4821470584       31.5388608544
  O        14.2338815843       -6.9327022827       17.3586098845
  H        13.6383183877       -6.7015641841       18.1052036637
  H        14.6968222167       -7.7746410728       17.5484428232
  O         3.3221063498       -4.8576802409       16.5493121578
  H         2.7661036796       -5.6334310226       16.9842600606
  H         3.2970945903       -5.0804982925       15.6198531764
  O         2.8641478111       -6.8619920405       22.8321578316
  H         2.6322544538       -6.9726034173       23.7660611012
  H         2.3789068967       -6.1030572300       22.4276241886
  N        10.1763724684       -3.8429731265       26.7494691273
  H        11.0034956558       -4.3596049983       26.3289384178
  H        10.3780073121       -3.6643588572       27.7380588300
  H         9.3831775856       -4.4604669012       26.8051025840
