     193
 CELL 12.4294 12.4294 12.4294 90.0 90.0 90.0 i =    60920, time =    30460.000, E =     -1096.4807906233
  O         2.1015320506       -1.4280567968       29.0658786025
  H         2.9842163555       -1.0325407274       29.1573541740
  H         1.4705847511       -0.6778293911       29.0931741873
  O         4.1224519748       -8.6902936001       24.7879009451
  H         4.9722073932       -8.9425708381       25.2918233773
  H         3.8787112848       -7.8325646824       25.1723086647
  O         6.6547115133       -6.2165468085       27.5714682102
  H         7.2318359505       -6.1659656040       28.3359451377
  H         5.7936717721       -6.5188711156       27.8702985985
  O         5.0066208781       -0.1234133978       29.1079658900
  H         4.7846561059        0.5391809124       29.7613999113
  H         4.5830255955        0.3992694328       28.3430803459
  O        -6.5379660471       -5.8643581883       22.7158784052
  H        -6.9878174685       -5.1280979178       23.1767666495
  H        -6.4324773669       -5.3831166838       21.8069379248
  O         9.5919870463       -6.9359107265       32.6938303531
  H         9.4615248768       -6.0824715490       32.2803124213
  H         9.4336219989       -6.7719935085       33.6314119929
  O         1.4560047489       -2.7891323407       19.0369509103
  H         1.1715673749       -2.0746364750       19.6862358105
  H         1.5482394469       -2.3895961767       18.1199900396
  O        10.4563193762        3.6302308001       29.1619821186
  H         9.5401164736        3.9348722767       29.3192937560
  H        10.6072471520        3.4649318913       28.2024940477
  O        -0.6217557064       -6.1434105794       17.4609603271
  H        -0.1721684064       -6.0199205204       18.3079232371
  H        -1.0915926208       -7.0201584094       17.4581783324
  O         4.5373101886       -2.7612106156       19.4746988680
  H         4.0089464041       -2.1295550827       20.0175024441
  H         4.0618005486       -3.2292473040       18.8036376147
  O         6.1529412988       -6.2312249952       18.6093968094
  H         6.2890357254       -5.7459623855       19.4342645075
  H         5.4470259744       -6.8547886788       18.8724368252
  O        -2.8868859070        5.6569648318       23.6079643069
  H        -2.5235474548        4.7522572193       23.5974184239
  H        -3.7640738656        5.6785115870       24.1019509170
  O        -5.4012007075       -2.0828007429       29.8206394890
  H        -5.5771834357       -1.7541824546       30.7438983485
  H        -6.2546521262       -2.3667196411       29.2899922121
  O         3.2704342512       -4.4990141397       21.8462791594
  H         2.4970805562       -5.0860706673       21.8034852368
  H         3.5580948266       -4.2305066882       20.9820406502
  O         2.5159952052        0.0297206967       22.6358209842
  H         2.2757953638        0.8829885463       23.0622555800
  H         3.4060188065        0.2441962598       22.2214199372
  O        15.9701253907        1.1598406292       27.0441011415
  H        15.6931467606        2.0668661933       26.7746216133
  H        15.2293289432        0.7529982009       26.4895883129
  O         8.9769351878       -4.4616132771       18.2114753834
  H         9.1330892735       -4.9782987777       17.3866529317
  H         8.3080194685       -3.8514505617       17.8945186060
  O         6.4224339940        2.4904188120       28.4834889352
  H         6.5731877276        1.5612916144       28.7055546312
  H         5.4597783531        2.6220666997       28.8136235871
  O         2.7148262079       -2.7298116791       23.7006623630
  H         2.5967362478       -1.7228292479       23.4160615041
  H         2.9228243348       -3.2287947325       22.8805410201
  O         4.2188460265       -7.5938283771       27.8679827273
  H         3.3282768068       -7.0990911982       27.9837829255
  H         3.9483305360       -8.3982285201       28.3812384391
  O        11.1901484344        2.8072657139       14.0460927722
  H        11.1740405011        1.8025140334       13.9967986933
  H        10.5644592321        3.1556991017       13.4293608028
  O         1.1358099244        3.4235863658       27.4979971202
  H         0.2714734619        3.2836927344       27.0430870927
  H         0.9605223514        3.7251825497       28.4070003424
  O        11.2035269304       -0.6958259835       30.8407003790
  H        11.7009616925       -0.7779786007       30.0192479683
  H        10.9717390781       -1.6643360941       31.0683748360
  O         1.6022494624       -8.4782669499       17.8952530876
  H         1.9427743304       -7.7004032671       18.4236660860
  H         0.8275369944       -8.9237412359       18.3681921190
  O         1.0452531444       -0.3837414761       25.7817902791
  H         1.1677919149        0.2558264440       25.0135207783
  H         1.0902773559       -1.2868231609       25.3488240074
  O         9.8263904071       -5.3696058610       15.7445074194
  H        10.6208022023       -5.7098924082       16.2853795410
  H        10.0268367393       -4.4610048786       15.4068698402
  O         8.7108495068      -11.7825668447       30.8366502958
  H         8.4580599915      -11.9849318728       29.9049843533
  H         9.6700466862      -12.1042058376       30.8585208261
  O         6.4690594468       -4.2665670565       20.6539539064
  H         5.8703600905       -3.5496617063       20.4152178456
  H         7.2429963621       -3.9118167496       21.1531501756
  O         1.0181497290       -6.7605050472       22.5141419713
  H         1.1662319731       -7.0196270041       23.4122367537
  H         0.2499028064       -6.1913379643       22.5961411918
  O         0.4680967289      -11.5061790258       29.0657327397
  H         0.1638081062      -11.0724748627       29.9231488682
  H         0.9658782865      -10.8396799402       28.4889515648
  O        -2.0745032796       -2.9840633679       27.0390679479
  H        -2.1608185742       -2.1853618920       27.6373465124
  H        -1.1109220502       -3.2219595084       26.9698234997
  O        -2.0631984160       -2.8774383060       32.3645798884
  H        -2.4449010651       -3.4859220430       31.7793708968
  H        -1.4258903831       -3.3876417285       32.8194072615
  O         8.3896117174       -9.7100043878       20.1553801454
  H         8.7060578166       -8.7633963880       19.9399455944
  H         8.4723808151      -10.2681673927       19.3338746422
  O         0.4952790220       -0.9723153907       20.8429127493
  H         0.0564353199       -0.5138048620       20.0468227722
  H         1.2103360420       -0.4329289897       21.2272248265
  O        11.6104486407       -4.7789888026       22.5743899772
  H        10.6469840120       -4.9606193469       22.5868754077
  H        11.6444037716       -3.8288128134       22.9590511980
  O        11.7987396664        2.4550467052       18.6896906690
  H        11.0913166727        2.7809244764       18.0605893006
  H        11.2187816523        2.0852813157       19.3769494939
  O         7.2402301462       -6.7169741310       25.0262966556
  H         7.0270433004       -6.5822488465       26.0126387233
  H         6.4474445904       -6.4694697050       24.4445106946
  O         8.1486154467       -2.8648349251       22.2710778398
  H         9.1299923626       -2.6897642203       22.2274824943
  H         8.0643927510       -3.1345355248       23.2797508806
  O         3.7812805353       -4.6065132723       30.0103834964
  H         4.2988391124       -4.2090838198       29.3124423683
  H         4.3533574022       -5.3987581571       30.2683330832
  O        11.4773018619       -9.0508749961       23.0293345814
  H        11.9548998904       -8.4678707290       22.4984004741
  H        11.2670799292       -9.7717046386       22.3061260921
  O        -4.3634392803       -0.3782259703       15.8088255389
  H        -4.8743252802       -1.0838392912       16.2470698452
  H        -3.5324877955       -0.6978184350       15.5063067305
  O         7.9391259849        4.4154316290       29.8865971664
  H         7.4650983370        5.0354469421       30.5218132733
  H         7.2887824182        3.7095473837       29.6719200482
  O         6.9554909293       -0.9092548881       32.5924487762
  H         7.6426614544       -1.5323735590       33.0019354312
  H         7.6454977990       -0.2707297771       32.2272587231
  O         5.5530347087        3.2561113978       19.9707455319
  H         6.5049083920        3.1029617788       20.0028963368
  H         5.2903911187        3.5527705178       20.9332888948
  O        10.4576184641        1.4077833561       21.3029216835
  H        10.3221848576        0.7099492568       21.9690766966
  H         9.5587455651        1.8141653660       21.1753800577
  O        17.1224551425        0.4689238098       21.0274947778
  H        17.5869693878        1.2511387729       20.7014840601
  H        17.8987360327       -0.1841503936       21.1504674468
  O         9.2259038551       -0.1329178783       23.4650091957
  H         8.6391056309       -0.8085766287       23.0971845658
  H         8.7327999944        0.3864254926       24.1598838456
  O        11.1339450347        0.0547588223       27.1321739837
  H        11.6697943640        0.4774419782       27.8335765943
  H        11.7650289127       -0.2222330243       26.3900219653
  O         1.4505106020        2.3819957907       24.3331201924
  H         2.0328316599        3.0854046696       24.7047473496
  H         0.6105957483        2.7442561082       24.0119676803
  O        -4.0084287170        1.2152559472       25.6315704810
  H        -4.2669159021        0.7958030655       26.4759422605
  H        -4.8098480560        1.7790399315       25.3737391999
  O        12.9781036173       -5.3366954959       19.6766761737
  H        12.5375710291       -5.2008768531       20.5603293098
  H        13.4751361388       -4.4759910562       19.5193381716
  O         4.8216344427       -4.0972188672       25.0169407565
  H         4.2184611840       -3.3736342184       24.6748687482
  H         4.1396636528       -4.6986290009       25.4917104640
  O        -1.2829833484       -2.0272547684       22.8111686138
  H        -0.8907448845       -1.6129358583       22.0277926155
  H        -1.7490804372       -1.2937202770       23.2935184942
  O         3.8733731675        2.5559578529       30.1866299554
  H         4.2461111194        2.7375413662       31.0794740876
  H         3.0692724137        3.1098378711       30.1183651917
  O         4.3259526635        4.5359603549       22.0395940271
  H         4.9483507456        5.2835452819       22.3358371539
  H         4.1958417085        4.0905534618       22.9457139372
  O         1.8800439209       -5.9653526026       28.6887362287
  H         2.4030893844       -5.4105382925       29.2768015405
  H         0.9937831165       -6.1434342603       29.0592304880
  O         0.8413382979       -2.9228135826       26.8904859709
  H         1.4537630814       -3.4736996803       26.2693300271
  H         1.2942288531       -2.2606780342       27.4583846465
  O        -1.5742004643       -7.0215085369       25.9418466090
  H        -1.9578135038       -6.5046766522       26.7350257609
  H        -2.1735628675       -6.7822800824       25.1941367972
  O         6.6398041007        3.1453215353       25.7453954617
  H         6.5799138941        3.0519111542       26.7706962887
  H         7.1505737011        3.9614335759       25.5510440319
  O         5.2047871791       -3.5399108164       27.8217982413
  H         4.9020514458       -3.2012791602       26.9422559879
  H         5.8215433808       -4.2323449115       27.4861000377
  O        13.5743003174       -7.1427138351       13.0716652668
  H        12.5420388618       -6.9928226722       13.0701977640
  H        13.7491481224       -7.6755074197       13.9038412838
  O         2.4614930551       -4.9964707408       13.6462840337
  H         2.2712775826       -5.2290931961       14.5964099470
  H         1.9946666578       -5.7984298925       13.1380344537
  O         3.2269516212       -6.7235738920       19.7043314341
  H         3.3184482976       -7.1228239305       20.6224618945
  H         2.3444851503       -6.3489471179       19.6335103304
  N         7.7821121136       -3.3055446712       25.0254946269
  H         8.4996545724       -3.0238915500       25.6674269190
  H         7.0169033812       -2.6092457114       25.1810615704
  H         7.4659000586       -4.2403538118       25.3978456430
