     193
 CELL 12.4294 12.4294 12.4294 90.0 90.0 90.0 i =    42120, time =    21060.000, E =     -1096.5396509960
  O        -1.5692338425        1.6297220634       20.0588589578
  H        -1.2180422601        1.5275509813       19.1880395731
  H        -2.4958226989        1.8115106328       19.8322953807
  O         1.9892486771       -8.3468336663       14.8789756330
  H         2.6185671482       -9.1735140927       14.9726771917
  H         2.1768739648       -7.8404638371       15.6835465923
  O         2.2475985565       -6.4173357502       17.0500154475
  H         2.3392537123       -6.9633539561       17.8911504985
  H         1.2773718084       -6.3388719015       16.9054217106
  O        -0.3659595227        1.0911720160       17.2913085176
  H         0.5552131649        1.3288636624       17.5190925816
  H        -0.3815769800        0.2238598674       16.7773943460
  O        -9.7780051453       -3.9524757426       13.6382629361
  H       -10.7745774471       -3.7875098031       13.6525159628
  H        -9.5453349046       -3.5954761318       12.7561035657
  O         5.4029873367       -5.3610228238       22.0432562762
  H         5.0132618344       -5.3593340662       21.1548251076
  H         5.2615234002       -6.2260680074       22.4705938483
  O        -2.0604902504       -0.6978001043        9.0381407503
  H        -2.7291936098       -0.3547434787        9.6171061277
  H        -1.7609386314        0.0175249152        8.4396280818
  O         6.1617042076        4.5427429888       19.7873525981
  H         5.4198137536        5.1181992820       19.9839991922
  H         5.8367128017        3.9382505642       19.0760132946
  O        -2.6154357327       -7.5698768618        5.6425699883
  H        -2.0632234952       -7.5734523749        6.4572998882
  H        -3.1819433224       -6.7521447568        5.7826074794
  O         0.7644523464       -1.2130891363        9.3468785281
  H        -0.1576267302       -0.9765793612        9.1717727975
  H         0.9988986730       -1.8092949380        8.5907574234
  O         1.8340213341       -5.0485304370        9.1905635455
  H         2.1602299405       -4.3536999857        9.7565719184
  H         0.8542097568       -5.1298851853        9.5542739429
  O        -8.5794714584        4.3932617285       10.9638758668
  H        -7.7658577538        4.0406500573       11.4516187856
  H        -9.0586333251        4.9487588718       11.5344626353
  O        -9.1323481368       -1.9420750981       18.1807472796
  H        -8.7448580977       -1.0902504643       18.5729377122
  H        -9.5569403969       -1.7077311558       17.3041993938
  O        -1.4186391323       -3.2093760783       11.0710466184
  H        -1.1806668757       -2.4601796220       10.5098104524
  H        -2.2454414048       -2.9504115258       11.5699243098
  O        -0.6531065981        0.9869163007       12.0106070334
  H        -0.5129313639        1.5994547117       12.7486380369
  H        -0.5330406478        1.5931946097       11.2048234169
  O         8.9140631525        0.1636253110       15.6103801074
  H         8.4923203071        0.7518977923       14.9177367471
  H         9.5249878340       -0.4768117759       15.2239266405
  O         5.1717858039       -3.7846154635        6.2281758479
  H         5.6992025745       -4.3578609425        5.6127116373
  H         4.5226518186       -3.1971704286        5.7111776505
  O         2.2758816800        2.1116434168       17.9685746393
  H         2.8146618669        1.5547276310       18.5497515126
  H         2.0967211052        3.0121769290       18.3534966395
  O         1.3650570514       -0.7436214171       12.9958306032
  H         0.7126513841       -0.3614934872       12.3228087841
  H         2.3191506645       -0.7409544365       12.6634719523
  O        -0.5006340340       -6.0841600812       16.5529494702
  H        -0.7045642908       -5.2250351252       16.9764602091
  H        -1.1485399686       -6.7849716655       16.7240526091
  O         5.7096123107        3.2262028437        4.5879974573
  H         6.4954327012        2.8373016101        4.1448140664
  H         5.4996819005        3.9466196764        3.9037701745
  O        -2.0881480177        2.7374836798       16.0484480569
  H        -2.6636893974        1.9424123450       16.0530049008
  H        -1.3054030581        2.3407536385       16.4568165619
  O         6.5894373852        0.3158963398       19.0854511766
  H         7.1016685385        1.1206806754       19.2886786405
  H         6.6696552692       -0.3367583353       19.7630156526
  O        -1.0703488567       -7.7601999333        7.7744720021
  H        -1.1024531873       -6.9415933400        8.3184183079
  H        -1.2934603896       -8.4738875298        8.3668737526
  O        -4.3498124583        2.2678446183       14.0714526072
  H        -4.4095615974        3.1281696966       14.6472416644
  H        -5.0147222460        2.2381357484       13.4146550431
  O         7.2905615100       -5.9706137629        5.2717921644
  H         6.8798841472       -6.7813091112        5.7855589387
  H         7.2122921934       -6.3224159914        4.3605557761
  O         4.0258505828      -12.0436476184       19.4014798504
  H         3.7283807726      -12.0407302550       20.3694656747
  H         4.9988008408      -11.8155484763       19.3268162939
  O         2.5147632164       -2.9324100179       10.8263355013
  H         1.9006848480       -2.2738082497       10.3286762654
  H         3.4412655689       -2.6486619096       10.6597361646
  O        -4.1503926334       -6.7594549814       10.9774120623
  H        -3.4430311258       -6.5110891695       11.7051830854
  H        -4.3546187176       -6.0154749239       10.3550503471
  O        -4.1129107946      -10.0495850317       19.6313160045
  H        -4.1531778587       -9.4410697197       20.3640809762
  H        -3.9652724716       -9.4522004880       18.8827818354
  O        -4.3177441992       -3.2963954569       14.4894571443
  H        -5.2691580081       -3.1207607503       14.6755685062
  H        -3.9012606874       -3.2323859993       15.3625498970
  O        -5.7516425053       -2.1467034862       20.4404766278
  H        -6.3970825998       -2.5852472415       19.8004520184
  H        -4.9434960971       -2.5422030396       20.2598568425
  O         1.9779472313       -9.0926930307        9.4103804936
  H         2.6490118677       -8.8137946212       10.0598908344
  H         2.0840074773      -10.0660691525        9.4290892744
  O        -3.7002378063        0.4557363599       11.0878659370
  H        -4.5321977578        1.0562292629       11.1114846207
  H        -3.0095062729        0.9602098386       11.5984554731
  O         8.0187357038       -4.1959747648        9.6911588288
  H         7.1142287272       -4.5861267954        9.6364572274
  H         8.0026308845       -3.4370255295       10.2719561219
  O         7.6248246774        3.5098036197        9.6675297324
  H         6.8487745700        3.7214929035        9.1222951222
  H         7.9673680977        4.2865655193       10.2316401906
  O         3.9748350055       -4.7492756062       15.8905761438
  H         3.2898854637       -5.2835319231       16.3351361066
  H         3.5255391020       -4.4284238034       15.0548038243
  O         5.1123069173       -2.2269626250       10.4227103510
  H         5.7147866530       -2.3694357519        9.6734796198
  H         5.3723879944       -2.9417334594       11.0585670671
  O         1.2526534766       -2.9176846527       19.6308706396
  H         2.1052330058       -2.5080116656       19.1961441106
  H         1.5395449401       -3.7192584672       20.1350050082
  O         6.1076483116       -7.4961215245       12.7611166765
  H         6.7387817048       -7.1114006905       12.1351735337
  H         6.2387813006       -8.4970717641       12.8196375531
  O        -6.7955688924       -2.3739303251        3.0583957928
  H        -7.4612413300       -2.9299704557        3.4762319077
  H        -6.1931177946       -2.0614289864        3.8161505590
  O         4.0173852208        6.3186771543       19.8565107093
  H         4.0967225667        6.8813181707       19.0750026811
  H         3.1334488125        6.4920043085       20.3224922246
  O         2.6958698341        0.7593717391       21.8494065425
  H         1.9581788241        0.0939195529       21.9620017557
  H         3.2044390067        0.6563881258       22.6997293549
  O        -0.6191305012        5.2758355934       12.1965414079
  H         0.3070115416        5.5650758409       12.3064156580
  H        -0.7139348723        4.5367103606       12.8847503412
  O         6.3493332073        2.1444622562       11.5382894934
  H         5.5490139413        1.5588638320       11.3442042604
  H         6.5587895402        2.6211754684       10.7058351692
  O        11.8630184103        3.0980685266       10.2018082431
  H        11.8139380907        3.6734877829       10.9526281308
  H        12.7658859466        3.2864710243        9.8026432485
  O         4.4079559067        0.1539394234       11.5411694498
  H         4.6376091834       -0.7448720278       11.1891707199
  H         4.1856988795       -0.0991558349       12.5220873353
  O         7.7352541423       -1.4738895725       17.1978519446
  H         7.5075331960       -0.9248235020       17.9955465369
  H         8.0775561979       -0.8016261206       16.5716863963
  O        -0.5647712270        3.2686358153       13.9777341421
  H         0.2258033960        3.6225003909       14.4033005291
  H        -1.2444782328        3.0291003216       14.6462157052
  O        -8.5753868233       -0.3871859946       14.1790704316
  H        -7.8521504543       -0.9188196375       14.4916327897
  H        -8.6128033813        0.4469047714       14.7642355746
  O         9.3347219981       -2.9488709550        7.6142518415
  H         9.0262489151       -3.6212322923        8.2265218087
  H         9.6169828513       -2.2195814154        8.2788307448
  O        -0.0373020433       -2.8578681620       13.6098583056
  H         0.4532553802       -2.0950857276       13.2563971970
  H        -0.4794561275       -3.2756716589       12.8735674150
  O        -4.0757424727       -2.2593580366       11.9058302203
  H        -4.0073365331       -1.2602763926       11.7149203182
  H        -4.1460553673       -2.3362280130       12.8826535426
  O         1.8101555124        4.3791376090       19.5436809737
  H         2.0503071612        4.0157869990       20.4304388482
  H         0.8531341851        4.5509513045       19.5172749120
  O         2.2690489072        5.6267020348       12.8535864386
  H         2.5426132165        6.4975241489       13.2452417417
  H         2.4189105345        5.0033795395       13.6177384550
  O        -0.8799856154       -3.6061449365       18.0591744516
  H        -0.1625590894       -3.3125469564       18.6488341892
  H        -1.7050017054       -3.3952740594       18.5610394307
  O        -1.0862987484       -1.6916925579       15.7765926198
  H        -0.7990336728       -2.2476741298       15.0316607969
  H        -0.9467222065       -2.3358533865       16.5378954157
  O        -7.2290541029       -7.2521107830       15.3588627151
  H        -7.4768316360       -6.2975664067       15.5426648482
  H        -6.8302529865       -7.3158294491       14.4047889279
  O         3.6059704160        2.1102183011       15.7315678249
  H         2.9504270865        1.9028878461       16.4805643030
  H         4.4072861607        2.4822943289       16.2610837150
  O         1.7316691727       -1.3541956118       15.9906955761
  H         2.1945195071       -1.0691382368       15.1459651598
  H         0.8557597682       -1.6295435633       15.7442883675
  O         8.1796191856       -7.6932888685        3.1110581825
  H         8.6544618093       -7.1972615763        2.3536720087
  H         8.9814238317       -7.9178229386        3.7203222155
  O        -3.0511575383       -6.1695862956        0.9447284261
  H        -3.3431766193       -5.3161601988        1.2651324328
  H        -2.0836002256       -6.2856303964        0.8184646410
  O        -1.0013528245       -5.6790431111        9.6492291327
  H        -0.6835019301       -6.1491364725       10.5020389375
  H        -1.2816541871       -4.7823566844        9.9598184526
  N         5.5798161264       -4.1330182130       12.8483986688
  H         5.5408355662       -3.3517596761       13.5774334463
  H         5.0214874802       -4.9230312690       13.2149318931
  H         6.6126870726       -4.4501180976       12.7110290609
