     193
 CELL 12.4294 12.4294 12.4294 90.0 90.0 90.0 i =    98920, time =    49460.000, E =     -1096.5163739059
  O         8.2923198336       -0.4300698391       50.2677584283
  H         7.4708006754       -0.5481386161       49.7445137250
  H         8.0034588710       -0.1697261938       51.2027374571
  O        10.4276902715       -7.5930312366       47.0003964742
  H        10.9030592903       -8.3551797898       47.2166057012
  H        10.8066078751       -6.8504930444       47.4762183396
  O        11.1437325938       -1.9312745723       51.2030072912
  H        11.3168443814       -2.1230726447       50.2445529495
  H        11.9930780874       -2.2459384042       51.6404117426
  O         8.5117486867        1.9703684728       48.1680908937
  H         7.8109602722        1.3525673887       48.4478186132
  H         8.5371529677        2.7177351318       48.8013675168
  O        -1.0679524917       -5.3655699450       48.9294944983
  H        -1.0020842090       -4.3873101912       48.7701495678
  H        -1.7116433143       -5.4035925113       49.6828968183
  O        18.2743814442       -0.8271333716       57.6577956095
  H        18.4875359913       -0.0852054901       57.0398938705
  H        18.1365834759       -1.6205279882       57.0490994684
  O         7.1914744443        0.4039621769       40.3439209301
  H         7.9545327513        0.3992621491       40.9804800842
  H         6.8800564462       -0.5599910759       40.4216706917
  O        14.2958646146        5.1336989740       51.6881780971
  H        14.4766718377        6.1427624246       51.7034042063
  H        14.0849103511        4.9686342433       50.7437047567
  O         5.8147753409       -6.7155947286       39.4682936689
  H         5.7809357470       -5.9778100813       38.8066355779
  H         4.9150717812       -7.1372408497       39.5490983105
  O        12.9126168835       -2.6463873124       41.3886084151
  H        13.3813050732       -1.7866598486       41.6276649863
  H        12.0866656335       -2.6645772243       41.8995104034
  O        10.1456065999       -2.5691854722       42.8564459104
  H         9.7090126088       -3.4015087788       42.7227815204
  H        10.3680104270       -2.4356529833       43.8343187810
  O         4.2551639315        5.5698806416       45.0753895293
  H         4.9942156088        6.1024968431       44.7280142101
  H         3.8565472275        5.0951820547       44.3007272150
  O         2.0186358099       -0.6089263412       55.1151968822
  H         2.6865005238        0.0778095625       55.4939268787
  H         1.8188294776       -1.1783537122       55.8762813886
  O         8.6257779731       -1.3060824218       45.6019638827
  H         9.0600839831       -0.7091939783       44.9603000235
  H         7.6994198961       -0.9604265882       45.5512590375
  O         8.7145291007        5.1209256267       44.7042530022
  H         9.1597694867        5.6676260603       45.3930739528
  H         9.3566740591        4.6691613618       44.0837098833
  O        18.8884969233        0.0926300470       48.4879315902
  H        18.0775989313        0.4507341947       48.8821139710
  H        18.5116674042       -0.0382878318       47.5934629658
  O        18.2610569027       -2.7468969791       43.0957593799
  H        17.2697163280       -2.9149944964       42.9806840998
  H        18.5467384698       -3.6210704343       43.3868869758
  O        10.8777343213        4.6060585398       51.5006418013
  H        10.7365505479        4.3718860695       50.5385873067
  H        10.1542157211        4.0636020691       51.8843917510
  O         7.5534713418        2.7463932858       45.7633770925
  H         7.8946599142        3.6345732710       45.5381101199
  H         8.0826508369        2.4361143604       46.5964630575
  O        12.1904511068       -5.6352076177       53.0568351370
  H        11.3479333617       -5.1745320730       53.1760662445
  H        11.9313118612       -6.3889206606       52.3970841892
  O        13.4244758445        5.0107530905       36.7468511395
  H        14.0850474048        5.1678225148       36.0551881465
  H        12.9102453695        5.8489536678       36.8576184856
  O         7.4053911393        6.6226660154       47.6453010577
  H         7.8374648604        7.1270049957       46.9606820191
  H         6.8535530947        5.8597628246       47.3062170497
  O        14.2956233064        0.5954998299       50.8156542465
  H        13.9043864132        1.4192751992       51.3715521327
  H        14.6783599504       -0.1271019807       51.4621403548
  O         7.3592523967       -8.4863660104       37.4721466237
  H         6.6724814088       -8.1170416127       36.8942132100
  H         6.8265409037       -8.7235952238       38.2551613216
  O         3.5992732180        3.7824054319       48.4197446470
  H         4.4840684144        4.0443466902       48.0008258676
  H         3.9016834930        2.9873671396       48.8896711879
  O        14.2290891969       -2.9641350876       35.4181232502
  H        14.5984827826       -3.2133987628       36.2847877393
  H        14.8141943273       -2.1513049512       35.1835959499
  O        11.7635275389      -11.2657255484       54.9414485727
  H        12.0253879296      -11.0018753563       54.0726583208
  H        12.4895143165      -11.7850393233       55.2613864251
  O        15.6665635723       -3.5886805226       42.4735299255
  H        15.1137384397       -3.8408163872       41.6737104967
  H        15.1099635329       -3.6315763089       43.2924248413
  O         8.5942599074       -4.1385298646       45.6225829274
  H         9.5414260387       -4.4302995718       45.6810523484
  H         8.5571779209       -3.1747255768       45.6124087454
  O         4.4153705302      -11.0603199181       49.7071866871
  H         3.5255943857      -11.3251580312       50.0898402077
  H         4.8421423534      -10.6538674258       50.5007869495
  O         3.4208494837       -0.9359723599       46.5488153379
  H         2.9379908160       -0.0896684708       46.5413629857
  H         4.2743721832       -0.7506306456       46.1085141601
  O         3.7614802680       -1.4990356050       52.4321582502
  H         4.7449188314       -1.6180518499       52.5457877409
  H         3.4851379543       -1.8924584086       53.2795191218
  O        12.9303338760       -6.3696980268       43.1883437255
  H        12.7175580250       -5.8655954915       42.3172146927
  H        12.3448278210       -7.1642526798       43.2217728329
  O         5.6743140484        2.5083898808       39.2912999950
  H         5.9897289113        1.7466531168       39.8257980447
  H         4.9744366476        2.9969315300       39.8955931548
  O        18.9624674707        1.2633969809       43.7034101995
  H        19.5839741212        0.9815849779       42.9778385227
  H        19.5475254745        1.7378063124       44.4190484296
  O        16.3580684979        3.9913716257       40.5328934694
  H        15.5809953097        4.2051006505       39.9623113233
  H        16.0378060953        4.3860195424       41.4121419983
  O        11.9002832516       -4.7851368237       45.5402348305
  H        12.1477105977       -5.4854922720       46.1974320770
  H        12.2505290500       -5.0450260463       44.6786003704
  O        14.4287308510       -2.6629038687       44.8338291259
  H        15.0920034016       -2.0545328711       45.2477986328
  H        13.7594874431       -2.9003888697       45.5092040607
  O        14.8511160335       -4.8180217104       52.3938549810
  H        15.0488479813       -4.0601555907       51.7387968567
  H        13.8894306790       -4.7785060855       52.5549943214
  O        18.8596272465       -5.4928545860       43.9740969545
  H        19.6028022999       -5.5927522779       44.5697490189
  H        19.1752093308       -5.9154813658       43.1377310846
  O        -1.8535322553        0.0623273682       35.1660690505
  H        -2.5706220004        0.4416089822       35.7181020233
  H        -0.9758832810        0.3019104773       35.5713748598
  O        12.5975008219        2.5824645753       52.2612884070
  H        13.2049973134        3.2660038427       52.6387458535
  H        12.0751814655        3.1828246775       51.6622341841
  O        10.7303634117        1.8367255929       57.8746415995
  H        10.5486501361        1.2436140624       58.6856830113
  H         9.9175234517        2.3655330529       57.7575997415
  O        10.1416385693        3.5869335216       42.9080491550
  H         9.8389002607        3.7366090532       41.9879668312
  H        10.5817804664        2.6657806134       42.8329249595
  O        15.2771723288        4.4916649816       42.9305957748
  H        15.1398711380        3.5502345810       43.2083039018
  H        14.3830086500        4.9147554604       43.0774105423
  O        21.4699293754       -0.0901323448       42.5359912441
  H        22.3705833656        0.2102256210       42.3767844669
  H        21.6159495271       -1.0472903452       42.5139944303
  O        15.0097576707        2.0577315952       46.3087827717
  H        14.3555120252        2.5892594963       45.8630824842
  H        15.2744044935        2.6348154089       47.0333001109
  O        15.5198483609       -3.1913794584       50.4119869431
  H        16.3876479199       -3.6131610957       50.2406479529
  H        15.9232028379       -2.4526482078       50.8974349053
  O         5.8097246866        4.4640473982       47.0647343290
  H         6.3647860136        3.7652195744       46.6685599635
  H         5.1414222556        4.7834273130       46.4186481207
  O         0.8180218586        0.9186854010       48.2925964633
  H         0.7232688274        1.8783550637       48.3880280129
  H         1.1593311063        0.6134043871       49.2163216396
  O        18.8778881152       -2.1096427177       40.4636874465
  H        18.8038303456       -2.4390814125       41.3629977359
  H        19.5462873333       -2.7178337275       39.9475633414
  O        11.6609420964       -2.5136062509       48.4301454912
  H        11.1893181949       -1.7305138117       48.0245273325
  H        12.6642250709       -2.4353812992       48.1934358738
  O         3.6025761617        1.6373672464       43.4551033470
  H         3.5953901130        1.8822008902       44.4083878020
  H         4.5590968626        1.6010620090       43.2238318075
  O         9.1544829922        2.7314646964       52.6378758838
  H         9.6949216956        2.0438468395       52.1291497572
  H         8.2825707253        2.5913798833       52.1996918827
  O        12.9776923830        3.7925677740       45.0149454282
  H        12.1303545743        3.2975958840       44.9372504326
  H        12.8896055172        4.4852850883       45.6716829390
  O         9.3743066343       -4.8425297126       53.5258381745
  H         9.3266078125       -4.2668741563       52.7713781035
  H         8.6303338574       -5.4533985976       53.4096328392
  O         5.5923983279       -4.6863905249       50.0520645288
  H         6.3143474869       -4.0596862292       50.3626840106
  H         5.9115361933       -4.9690247950       49.1617920639
  O         1.8684144528       -6.1636123332       46.6323582503
  H         1.8804155960       -5.1975840249       46.7009782925
  H         2.6969657830       -6.4321453530       46.1448206630
  O        11.4958006572        3.0801539548       49.1098218302
  H        11.5242301402        2.2714658659       49.6113031438
  H        12.3927351326        3.4991308581       49.2913395313
  O        10.5644960436        0.8704587258       50.7624334374
  H        10.8729732515       -0.0106922919       51.1320600700
  H         9.8042002461        0.5802936202       50.2717842393
  O        21.1613533550       -5.8022516469       37.5529350511
  H        20.7285298947       -5.8719217969       36.6343402891
  H        20.8698677311       -6.5093275712       38.0734090302
  O         8.0886678810       -3.3029861756       38.5522405994
  H         8.5841096192       -4.0476823943       38.0777396979
  H         8.6227762531       -2.4556591231       38.4055722059
  O         7.4001062059       -6.6997141634       41.6114858998
  H         7.6164163220       -7.6342585355       41.9358073453
  H         6.7901638925       -6.8331040042       40.8033091164
  N        11.3050655084       -1.6030648224       45.2571114844
  H        11.5057724954       -2.1981576712       46.0534974647
  H        12.2125235708       -1.3390986802       44.8642218832
  H        10.9483269400       -0.8432347024       45.7431586576
