     193
 CELL 12.4294 12.4294 12.4294 90.0 90.0 90.0 i =    81320, time =    40660.000, E =     -1096.5642957237
  O         6.6555978394       -1.4137315956       39.6926847737
  H         5.8759688697       -1.4336175549       39.0478455091
  H         6.2712628267       -0.9899414267       40.5014600812
  O         6.7290747748       -7.5845710798       37.5154321302
  H         7.3765344845       -8.3169368932       37.6626353468
  H         7.2910726364       -6.7360108827       37.5012411680
  O        10.6670250255       -3.4367330879       38.6115871906
  H        11.6697331190       -3.5831452217       38.4290457003
  H        10.5052107553       -2.6302193600       38.0189895320
  O         8.6632954511        0.2478980528       38.7433331930
  H         7.8228031602       -0.1920832340       39.1189161780
  H         8.5049012967        1.0892383313       38.1995711888
  O        -3.8597602682       -6.0709329602       35.2644318349
  H        -3.6736654368       -5.1031092198       35.3972379594
  H        -3.4492244342       -6.2576751570       34.3819389884
  O        15.1605775607       -3.9770918695       46.8490979657
  H        14.8286297013       -3.3331224216       46.1806949456
  H        14.4880236684       -4.7005932509       46.7640612614
  O         5.7519111667       -1.1677415728       29.8586141492
  H         4.9462137203       -0.6467785400       30.1054749211
  H         6.3693520576       -1.1973422057       30.5970715691
  O        13.3948620547        3.5198373661       40.9722225696
  H        12.8996039902        4.2971113829       41.1537241741
  H        13.8633165304        3.6516277312       40.0711907609
  O         4.6724833911       -7.7860913270       31.0917600470
  H         4.4813800292       -7.1257696361       30.4236383459
  H         4.0129973524       -8.5099069887       31.0162286711
  O         9.7515150703       -2.3799199094       30.5103203153
  H        10.0670817714       -1.9863094263       29.5852942828
  H         9.2651145374       -3.3076584069       30.2147216220
  O        10.0104860987       -5.4818857569       32.9755945666
  H        10.8616099712       -5.7474913148       32.4666577076
  H         9.2173485688       -5.6390139976       32.3873756218
  O         1.5189283886        5.6736104533       34.7409978653
  H         2.4801256174        5.5208562325       34.3251241775
  H         0.8252680051        5.3556630581       34.1737416656
  O        -1.2348985145        1.1610601024       42.8795121950
  H        -1.2753301043        1.3853151228       41.9151903828
  H        -0.8859041599        0.2440660318       43.0226139390
  O         6.8348617531       -2.4701538093       34.1967402190
  H         7.1107561026       -2.2760705212       33.3048330123
  H         6.2506316455       -1.7457063414       34.5242963464
  O         6.9909508865        1.9740653240       35.0984256212
  H         6.2325357269        2.5804678189       35.0481687175
  H         7.4317154555        2.2717583977       34.2393120191
  O        16.9752315316       -1.0874038992       37.8286341614
  H        16.5308883374       -0.4595853737       38.4900082820
  H        16.4251374848       -1.8323204117       37.5596223594
  O        14.1734973127       -4.4814316080       31.6541734285
  H        13.7797413632       -4.0357004395       30.9147373534
  H        13.5763562451       -5.2377992481       31.7313681068
  O         8.8084098152        2.8136226736       40.4718182035
  H         8.0631139911        2.5287327137       39.8968883993
  H         8.5373785675        2.3704929334       41.3391365015
  O         5.4770421338       -0.3149623151       35.2449632778
  H         6.0842071122        0.4827391628       35.0380576554
  H         5.2684903807       -0.3867362597       36.2176026899
  O         9.3585862021       -6.3576536541       40.5277944212
  H         8.9526747902       -5.7732621756       41.2865629504
  H         9.1083894536       -7.3046244461       40.7635955018
  O        14.5272399169        3.8758214250       26.1190420420
  H        14.6849767189        3.1158076439       25.4708014842
  H        14.0203654731        4.5864496056       25.6387458767
  O         4.4705588967        4.9500337257       39.3905777957
  H         5.1375159810        5.2429149054       38.7384947699
  H         3.6710319066        4.6701434989       38.9337480595
  O        13.8579049158       -0.2030981875       40.3804760511
  H        13.0267181137        0.2469726843       40.7288652104
  H        13.9164800160       -1.0700859609       40.9274278213
  O         5.4124219941       -9.7602469569       28.1678289489
  H         5.0825198766       -8.9507931221       27.6997449343
  H         5.0975266506       -9.5904217479       29.0815243769
  O         2.6212917946        2.0073608134       36.6465604446
  H         3.4049848255        2.4175477713       36.1575607584
  H         3.1735291433        1.5424357650       37.4152552553
  O        13.2937603055       -4.2139094123       25.6611640630
  H        13.7854742035       -4.1633565498       26.5064515849
  H        13.9463475478       -3.7319200635       25.1080221639
  O        11.5771567609       -9.0852652013       44.5238086127
  H        11.5421639787       -9.8864127876       43.8503748365
  H        11.0225333204       -9.3439258358       45.3331830526
  O        11.9203287031       -1.2112067224       31.4859301784
  H        11.1537686613       -1.8275930577       31.3922280332
  H        12.2567065798       -1.1701798768       32.4174239818
  O         6.0124336419       -5.1800218056       34.4208104672
  H         6.8076939745       -5.5799090092       34.8858587993
  H         6.2122733228       -4.2258369417       34.2834971859
  O         3.7681750866      -11.4139439471       39.2936124136
  H         2.8531168878      -11.6264579501       39.6834012415
  H         4.3834762878      -10.9776869758       39.9768252232
  O         2.4334736052       -2.5639225756       36.6173061550
  H         1.7844542623       -1.8273672545       36.4463293593
  H         2.6358363471       -3.1058585879       35.8117502426
  O         1.5203016878       -2.0690369694       42.2750860072
  H         2.2732841654       -1.6029446512       42.7664986612
  H         0.7390343548       -1.7922181179       42.8248486852
  O        11.9880956262       -6.4144167264       31.5605068664
  H        12.0346983948       -6.2050082860       30.6310158105
  H        11.8161789075       -7.3761902025       31.6350378374
  O         3.3828665166       -0.1510472607       30.9657602345
  H         3.5363556285       -0.3486008178       31.9037263327
  H         3.1463579947        0.8050370876       30.7640020883
  O        16.2736714078       -1.2544608118       33.3118507607
  H        16.4839424601       -2.1658410281       32.9985624796
  H        17.0107714861       -1.0030161698       33.9327363715
  O        15.1287171233        2.7707163963       30.3943680575
  H        14.3936819158        2.8227373422       29.7143139791
  H        14.6356355838        2.6457396504       31.2278658492
  O        10.2961935624       -7.8073979181       36.6118843724
  H        11.1424959517       -7.4693167922       36.9090132004
  H         9.7881130242       -6.9998092653       36.4958447996
  O        11.6565177391       -1.3675938155       34.2596137020
  H        12.4469196340       -0.9943162162       34.6239515385
  H        11.7144179856       -2.3299917711       34.5016416334
  O        12.2274995088       -6.2472214503       41.0535012769
  H        12.9001085769       -5.5929399267       40.7090883855
  H        11.3360712112       -6.0047223989       40.6430872319
  O        16.6398231147       -6.8690352959       33.8427385188
  H        17.2383491069       -6.0531127118       33.9864213121
  H        16.8127955511       -7.1559892527       32.8594258673
  O        -2.5270031490       -1.2328644358       24.7516430398
  H        -3.1148770962       -0.6974904428       25.3576487819
  H        -1.6150376237       -0.8386039749       24.7499405806
  O        11.3858396480        1.8485671667       40.2445171761
  H        11.9736605777        2.5675721894       40.5535952770
  H        10.5167711488        2.3163116359       40.0246159774
  O         9.6212902754        0.2028073468       46.7660802555
  H        10.4632230025       -0.3901854592       46.7544875009
  H         9.1471322334        0.1445098063       47.6524871494
  O         7.9201383800        3.1486722436       32.6695295073
  H         7.9522316070        2.8670466671       31.7570845311
  H         8.8724111860        3.0960103843       32.8975293833
  O        14.1929629956        2.8115288545       33.3228977042
  H        14.2670006915        1.8713389274       33.7284994010
  H        13.2010431351        2.8623216007       33.0743600885
  O        20.3624949227       -0.8846189217       31.8436383194
  H        20.8294651572       -0.4496285934       32.6507012414
  H        21.1042919797       -1.3800211927       31.3436024655
  O        11.3703896548        1.6249137074       37.4310013241
  H        11.5315884063        1.9176948394       38.3351723493
  H        11.7445080809        2.3649773878       36.8768834662
  O        14.2558333863       -4.2804571582       40.5833344874
  H        15.0946115097       -4.7945974927       40.9246328821
  H        14.2284940171       -3.4748120525       41.1810086562
  O         5.0311137323        3.7303536523       35.7265326408
  H         5.7026254025        4.2787356633       36.1866321281
  H         4.6632905609        4.2866371133       35.0059651533
  O         0.4020874573       -0.8975708059       37.4687817383
  H         0.2584549456       -0.0041484963       37.1560335630
  H         0.5548377303       -0.7163336611       38.4059974548
  O        17.0424340019       -3.6857437151       31.5683688059
  H        16.1812632652       -4.1166215766       31.4456026752
  H        17.1850933034       -3.1531395751       30.7971495344
  O         8.7987883065       -3.4332203466       35.6778117900
  H         8.1796500455       -2.9182480039       35.1034700330
  H         9.3210188905       -2.7097718796       36.0198289398
  O         1.8421002925        0.1121591704       34.7436640150
  H         2.0955409719        0.6249313474       35.5317301770
  H         2.6324392767       -0.4073436330       34.5099241003
  O         8.2982618235        1.7140597268       42.8332991029
  H         9.1869557272        1.2639462215       42.8555361651
  H         7.7178127572        0.9910499955       42.8156739849
  O        10.0568163382        2.7993556348       34.2627491016
  H         9.9918506864        1.7746993643       34.2532524024
  H        10.1085863150        3.1052382255       35.1760262534
  O         8.1643099536       -4.6419489478       42.2236481548
  H         7.4018903696       -4.4422000074       41.5656441458
  H         7.7451165420       -5.0658650060       43.0262005613
  O         4.0163297539       -5.6612476004       41.2813336601
  H         4.7673854452       -5.1165070686       41.5567176012
  H         4.3860703571       -6.2075569593       40.4963286735
  O         0.4395743294       -6.9166183045       37.2727842431
  H         0.4900385948       -5.9490589510       37.6119007345
  H         0.8756001696       -6.8729975927       36.3859103311
  O         8.3564677608        2.5996503313       37.2454208496
  H         7.9101413422        2.3112850768       36.3354813846
  H         9.2946069451        2.9987396702       37.0715729753
  O        10.9598305883       -1.3254155148       40.6240255754
  H        10.9158692624       -2.1732381448       40.0371156684
  H        10.1896221441       -0.8718322304       40.1594518026
  O        20.7597190837       -5.3054384939       25.7271503987
  H        21.0788049186       -4.6224106867       25.1251541004
  H        21.4711592512       -5.3895333924       26.4373958047
  O         6.7362723429       -4.1490097907       27.7101223974
  H         7.2119824180       -4.4317544523       26.9029208011
  H         6.6881944625       -3.1773489564       27.6482492497
  O         7.4028412183       -6.2752781174       32.0492396073
  H         7.4853393639       -7.2302786717       32.1510708512
  H         6.7473449861       -5.9465143488       32.6747959880
  N        11.5364934410       -4.0664343887       35.0212891062
  H        10.6096300268       -4.0887711993       34.5801030193
  H        11.8917312620       -4.9916753657       34.9892725229
  H        11.4033568206       -3.7880745309       35.9663593103
