     193
 CELL 12.4294 12.4294 12.4294 90.0 90.0 90.0 i =   100520, time =    50260.000, E =     -1096.4865033020
  O         7.3426997242       -0.3284936803       51.1071399423
  H         6.6640992756       -0.0234813218       50.4485594377
  H         6.8681156572       -0.5104851171       51.8968670728
  O        10.4011582895       -6.0892956695       47.4685129827
  H        10.3424005873       -5.5748867827       48.2704520101
  H        11.0963129344       -5.7288107142       46.8597188674
  O        11.9448886313       -0.9147601500       52.5239525611
  H        12.2053071937       -1.4031388146       51.7023381806
  H        12.5079191518       -1.0705240897       53.3804709562
  O         7.7890235324        2.4472404431       48.8157889618
  H         6.9659998402        1.9686048184       49.1527608479
  H         7.7455437313        3.2896164652       49.3525306624
  O        -1.0148835247       -4.9770606639       50.4708190331
  H        -1.0587893329       -4.0599925565       50.7791957987
  H        -1.9011825280       -5.2494123207       50.7596532551
  O        18.4089002639       -0.8975682712       58.4530508101
  H        18.3868613139       -0.2084085614       57.6921830403
  H        18.5133928400       -1.7725475762       58.0392434205
  O         7.3339639854        0.2897188059       41.9050252435
  H         8.3024686355        0.2505145376       42.0508549813
  H         7.0916031564       -0.6600481414       41.7385386943
  O        15.6463760142        5.3580087968       52.2146589751
  H        15.1505028392        6.1387756332       52.6877883672
  H        15.2896442851        5.1363453616       51.3210169504
  O         5.5804211863       -6.1470367467       39.0575018269
  H         5.4007850640       -5.2220649229       38.8985550390
  H         4.6930477579       -6.5845658858       39.1502381817
  O        13.2219650571       -1.4247504702       42.6347587922
  H        13.2598251714       -0.4197769683       42.7838045455
  H        12.6464651542       -1.9789406656       43.2486451298
  O        11.7135824517       -2.7637123951       44.0534034469
  H        10.9216070115       -3.2377587461       43.7068666437
  H        11.5549464432       -2.6622141331       45.0458497435
  O         4.5005336186        6.4159940820       45.9944638476
  H         5.2966565901        6.5023110859       45.4211589395
  H         3.9315496442        5.6683807299       45.5524602767
  O         1.8830457566       -0.8320582838       58.1871208042
  H         2.2732871817       -0.4651954400       57.3959255361
  H         2.0733560586       -1.8136345055       58.0671132354
  O         8.9934170865       -0.9333823657       46.5325513613
  H         9.3888080976       -0.7822549099       45.6892746259
  H         8.0748983290       -0.6809995545       46.3592529014
  O         8.7706512733        5.7382708786       45.4140151323
  H         9.2656619655        5.9358144404       46.2700108278
  H         9.5507610831        5.4302854547       44.8178383806
  O        17.9648747121        0.7936215597       49.4431991646
  H        17.4444992024        1.5069598851       49.9729113473
  H        17.2623479137        0.4412650998       48.7859127292
  O        18.2643645830       -2.9331163899       43.8920257849
  H        17.4662384278       -3.4368993254       43.4973539848
  H        18.8581190463       -3.6677745271       44.1333455758
  O        10.0756944593        5.1271448440       53.4682391812
  H        10.3469694710        4.7593266274       52.5559308577
  H        10.0646545672        4.2863807953       53.9478393204
  O         7.4902744510        3.2205535885       46.2050197987
  H         7.9488368607        4.0728994677       45.9840565045
  H         7.9853963227        3.0205969233       47.0706687193
  O        11.7206066807       -5.2448480976       54.1873773668
  H        10.9475401488       -4.7539098335       54.6690596724
  H        11.2647569991       -6.0575944670       53.7919367223
  O        13.2327214526        5.3773996254       38.0098771359
  H        13.5220102437        5.5257078744       37.0664341353
  H        12.8335722446        6.2305493424       38.2173593760
  O         7.2515735389        7.4316795607       48.6228133708
  H         7.3466568522        7.9469396880       47.7656580798
  H         6.6261647440        6.7028321077       48.4558962299
  O        15.4039540949        1.1468621547       52.6429105503
  H        14.6576108934        1.6028077434       53.2104228550
  H        15.6544762371        0.3402167500       53.1038022497
  O         7.2991371456       -8.3286535976       38.5819418955
  H         6.6889618581       -7.5046588310       38.4003561906
  H         7.1703565065       -8.5318364749       39.5787992304
  O         3.4048472295        3.8763632537       48.8774557282
  H         4.2108431806        4.3083110989       48.4763261984
  H         3.6479952875        3.7171552215       49.7613353900
  O        14.2419604342       -3.0940517478       36.1607636715
  H        14.6795705137       -2.9503664348       37.0297720660
  H        14.7696361779       -2.4513979981       35.6476862589
  O        13.3768165250      -11.2009243380       55.6999257600
  H        13.7661283391      -10.4670257143       55.1865867673
  H        13.9505080814      -11.2301322296       56.5361716329
  O        16.1572787627       -4.2365097384       43.0049567098
  H        15.7677513600       -4.3727691632       42.1300940113
  H        15.4407900910       -4.2568566051       43.6480567473
  O         7.8204113233       -3.6604964693       45.9909086281
  H         8.3394090036       -4.4581734239       45.7759657369
  H         8.4564746343       -2.9179665223       46.1151733599
  O         4.6429643497       -9.6873441683       51.3584810186
  H         4.0417399607      -10.3211101356       51.9943530057
  H         5.4778065318       -9.4672460274       51.7249400254
  O         3.8504838503       -0.7806889150       48.0284728814
  H         3.1276903370       -0.4887024266       47.4706002219
  H         4.5555938890       -1.0238862895       47.3081843983
  O         3.4000109246       -1.3685041828       53.8315718959
  H         4.1763485893       -2.0015771226       53.9681455876
  H         2.5599646855       -1.7296707626       54.2239403171
  O        12.8513877272       -6.9108571614       43.7949479378
  H        12.5614872481       -6.2957098726       43.1260912990
  H        12.1386595161       -7.6114944452       43.8031629202
  O         7.1003870320        3.0128906429       41.4790515173
  H         6.9971350490        2.0424380112       41.3251407439
  H         6.2110083027        3.4172032710       41.6466195125
  O        18.2454386233        1.3717443934       44.3479189902
  H        18.8332595537        1.2669536268       43.6219454838
  H        18.6497783601        2.1254660597       44.7782711832
  O        17.2313774987        4.6432099383       41.9268314975
  H        16.6886156782        4.6776962055       41.0939446194
  H        16.5621356119        4.7226781589       42.6315114737
  O        12.5706727271       -5.5884540627       45.9595341132
  H        13.3218617255       -5.8989299873       46.5039275107
  H        12.4920601187       -6.1304757652       45.1353483795
  O        14.8285268121       -3.7932215960       45.4876190026
  H        15.5987518052       -4.3550072482       45.7792881716
  H        13.9151186654       -4.2326337340       45.6563894935
  O        14.3285900611       -5.1094920708       53.1739444477
  H        14.3969476500       -4.4028864143       52.5106127759
  H        13.4020044444       -5.0971899980       53.4620657688
  O        19.0466530026       -5.7570599162       44.0578619493
  H        19.8909475529       -6.2194656780       44.4487898261
  H        19.1072285287       -6.1188712660       43.1203542674
  O        -3.3582386979       -1.9911394122       37.0224403680
  H        -3.3469328264       -1.5179577082       36.1875208826
  H        -3.8187983889       -1.3473217411       37.6413843272
  O        13.5329834429        3.1382869424       53.3980218928
  H        13.9303389471        4.0056069104       53.2968347229
  H        13.0304610283        2.8431148799       52.6275409126
  O        10.4769452087        1.1879539264       61.6169018982
  H        10.9926725527        1.5202683816       62.3885519087
  H         9.5923397450        1.6292569236       61.6770478999
  O        10.8645381433        4.0178932641       44.5468510115
  H        10.3841149518        3.4007981318       43.9643912570
  H        10.8797713828        3.7364910008       45.4866238514
  O        15.6100970202        4.6439417998       44.6157422353
  H        15.5498558715        3.6559541241       44.7905244563
  H        14.6694947900        4.9875283394       44.4298369925
  O        22.3226786086       -0.2440512793       43.8540649461
  H        22.6872524985        0.6195050088       43.6038664571
  H        23.0447346253       -0.8945755397       43.7587685963
  O        14.5703887799        1.9674114734       47.4608365256
  H        13.6480728003        2.2937221004       47.3857178504
  H        15.1213526624        2.5726950847       48.0731069168
  O        15.2187180255       -3.0716470064       51.2731671283
  H        16.1356242571       -3.3097023861       51.0087071297
  H        15.5039056918       -2.3827156094       51.9413128436
  O         5.6458579688        4.8905328947       47.8225708007
  H         6.0725851043        4.2761223166       47.1122199236
  H         5.3080232733        5.6185367918       47.2396841732
  O        -0.0429293625        1.5140792712       51.2638652082
  H         0.7763814848        1.3016826906       50.8404542488
  H        -0.3326811685        0.6778337997       51.7695182052
  O        18.7827098511       -2.0459825148       41.3892121866
  H        18.7125877491       -2.4132523246       42.2817271918
  H        19.1455609489       -2.7216250326       40.8430931513
  O        11.9329268776       -2.1231954418       50.1439649325
  H        11.0542003572       -1.9574077882       49.6555768975
  H        12.6652747655       -2.1903545534       49.5056477792
  O         3.0081718636        2.0422208765       44.7780983603
  H         2.7798586130        1.9641877751       45.7709076348
  H         3.8974616437        1.6316127358       44.6239454222
  O         9.7650883328        2.5231600811       54.8105021016
  H         9.8575350277        1.9496384680       53.9711199816
  H         8.8365711444        2.6207147357       54.9157550419
  O        11.2428489321        3.0829059562       47.2297817655
  H        10.9225934899        2.3919174246       47.9511263221
  H        11.3968626046        3.9045174200       47.7255422301
  O         9.4177099921       -4.2044146161       55.0474343309
  H         9.2183363169       -3.8445052573       54.1639439922
  H         8.6462225451       -4.7396612180       55.3016468162
  O         5.1943767498       -3.4940685649       49.9440986570
  H         5.5809795555       -2.5884591461       50.2383049238
  H         5.9580670585       -3.9378135509       49.5249987006
  O         1.9175049623       -5.8605231126       48.1981895912
  H         1.9991192301       -4.8705603686       48.2169856144
  H         2.8414230644       -6.2157761982       47.9746010680
  O        10.9720852791        4.0008347007       51.1900839459
  H        11.3802948220        3.1065183120       51.4055052701
  H        11.7890075379        4.5676246640       50.9972844755
  O         9.8338596247        0.8146512967       52.3668649417
  H        10.2830369401       -0.0567031888       52.4091476045
  H         8.9857308215        0.7037557135       51.8709583126
  O        21.0685264038       -5.5751025360       38.4416261481
  H        20.7436499925       -5.2323170361       37.6019149698
  H        20.7634605368       -6.4940057967       38.5674985418
  O         8.5686789081       -3.4598679822       40.0235474027
  H         8.5911967822       -4.3652079581       39.5760963000
  H         8.9219537798       -2.7891476512       39.4291776759
  O         7.5679181573       -6.0980451402       41.3819385095
  H         8.1741760478       -6.6063651415       40.9192132241
  H         6.7067815760       -6.1006343120       40.8503401633
  N        11.6484530707       -2.5171806616       46.7985143400
  H        12.0900786099       -3.4135312499       47.0592731397
  H        12.2748630111       -1.7484870873       47.0220954557
  H        10.7021625692       -2.4700957350       47.1410986027
