     193
 CELL 12.4294 12.4294 12.4294 90.0 90.0 90.0 i =    92920, time =    46460.000, E =     -1096.5530371617
  O         7.0407537651       -1.1472288570       45.9672592084
  H         6.2245333849       -1.1250611851       45.3420411534
  H         6.6662572354       -0.8309940139       46.8084951546
  O         8.9861043371       -8.5216129770       43.4715274575
  H         9.7256027409       -9.0178756397       43.9219506320
  H         9.2059279242       -7.5942802133       43.2530291354
  O        10.5204379613       -2.1852062751       47.0888426536
  H        10.8358440801       -2.5052320118       46.2058642288
  H        11.0972468250       -2.8113231164       47.6146904050
  O         8.5531839230        0.6669922556       45.0917889452
  H         8.0315458399       -0.1219021656       45.4993473631
  H         8.0130485701        1.4652921616       45.2849889251
  O        -2.7295901004       -5.9632540301       42.6796790261
  H        -1.8569088636       -6.0219781314       42.1527961283
  H        -2.5745997142       -5.3773456922       43.4757978187
  O        16.9961120324       -1.6243392497       53.8452646841
  H        17.5302411732       -0.8314554744       53.8761772516
  H        17.4296960764       -2.2485098188       53.2136308252
  O         6.9358989328        0.0996710501       38.1239062024
  H         7.8767371869        0.2131622002       38.1410651483
  H         6.8107208831       -0.7976424659       37.6587724286
  O        13.7828528633        4.1347170330       47.2547436481
  H        13.2484497112        4.8075199776       47.6676765241
  H        13.8910535544        4.4000067073       46.2952633960
  O         5.9334045009       -7.6641320891       34.7832857851
  H         5.6566093052       -6.7657868515       34.3966670713
  H         5.1970161298       -8.2077820187       35.2345300167
  O        12.1903918681       -3.2160746949       36.8709921115
  H        12.0233003838       -2.3320872841       37.2977188686
  H        11.7339019911       -3.8205501176       37.5091002338
  O        11.6274930519       -5.2518095373       39.0201549494
  H        10.9004099763       -5.2604091979       38.3979064369
  H        12.2869574637       -5.8916582478       38.7344922949
  O         3.8941775124        5.5590577877       41.0889183457
  H         4.4319846350        6.0094159279       40.3792519363
  H         3.5753569302        4.8140770125       40.5572218246
  O        -0.4590979539       -0.6746862767       50.2120369989
  H        -0.0684182504       -0.2731994297       49.4048828004
  H         0.1006924440       -0.4333032304       50.9893945494
  O         7.7933675763       -1.9474661785       40.6383024944
  H         8.5531104205       -1.6338193691       40.0627126699
  H         7.8535724578       -1.2410807134       41.3155460712
  O         7.9295642681        2.8167087821       41.2499573080
  H         8.1464263475        3.1334611136       42.1482125084
  H         8.2286666493        3.4551812857       40.5775845864
  O        17.5857880625       -0.7204779847       44.0504302614
  H        17.2546882300        0.1163652383       44.4053304740
  H        16.7255454007       -1.2135962538       43.9032938727
  O        17.6854840745       -3.2908692733       39.0530623967
  H        16.8323549080       -3.0683989020       38.6036040425
  H        17.6850875431       -4.2855338687       39.2369283014
  O         9.7977234145        4.5984523191       47.0577739741
  H        10.2310230314        3.9305386178       46.4257430812
  H         9.3517532058        4.0576831996       47.7305874375
  O         7.4439291360       -0.0523855598       42.6230118581
  H         7.9862748959        0.2937952340       43.3931249789
  H         6.6366685569       -0.2690290693       43.0965707296
  O        11.8050295521       -6.5981296743       48.3724452126
  H        11.5027714234       -5.6415358899       48.3338403064
  H        11.0650354559       -7.1342598417       47.9410050028
  O        13.5298039100        4.4076278490       32.0710893518
  H        14.2871624124        3.8339438040       31.8033847436
  H        13.5443063772        5.1039568960       31.3750857026
  O         6.8709395771        6.3210007901       43.8048853169
  H         6.7803029524        7.0606095290       43.1471078528
  H         6.5813373657        5.5099260406       43.2851631764
  O        15.0725955925        0.4432264189       46.6591333158
  H        14.4383783995        0.9249639341       47.2438019378
  H        15.5725925887       -0.2551968261       47.2155729048
  O         7.1524362243       -9.4373391611       33.1881664874
  H         7.3562118119       -9.0047113212       32.3712202805
  H         6.8570952479       -8.6865308888       33.8434496993
  O         3.3553465943        3.1017750313       43.8959716089
  H         4.0624722025        3.5809870167       43.3440638477
  H         3.8633875046        2.4818751488       44.5671965172
  O        13.8352220788       -3.8936828060       32.0208139557
  H        14.2540213933       -3.9312928489       32.9268367488
  H        14.2046104407       -3.0706253260       31.5692805343
  O        11.5994337935       -9.0544607743       50.4039693209
  H        11.6200272253       -9.5649325780       49.5318796421
  H        12.1471386737       -9.4195584692       51.1457210344
  O        15.2064747721       -2.2005260370       37.3405953147
  H        14.8720691787       -3.0981716884       37.2261354846
  H        14.7291984129       -1.8101748541       38.1181505887
  O         7.5571918469       -4.7695503083       41.1347547817
  H         8.3586146867       -5.2454989307       41.4859946771
  H         7.6490122908       -3.8129665133       41.1706312932
  O         4.6117784843      -10.7912331591       45.5307605207
  H         4.1336796330      -10.8748128215       46.3948879776
  H         5.4683606105      -10.3180296471       45.6984288061
  O         2.6065581109       -1.4571290328       43.3530658205
  H         1.7962365298       -0.9135592259       43.3394562563
  H         2.9787885015       -1.5760267802       42.4510721378
  O         4.3076093433       -1.7050403513       47.7216000966
  H         5.1849377586       -1.8911881136       48.2183161535
  H         3.5511551287       -1.7751926064       48.3796785878
  O        13.5756396013       -6.9493316569       38.1089667393
  H        13.9537828871       -6.4234933283       37.3817519660
  H        12.9529196577       -7.5743543912       37.6662689331
  O         6.0481413824        1.4413683257       35.8631101830
  H         6.3030519384        1.0320462970       36.7432088443
  H         5.2139566080        1.9222954547       36.1316519533
  O        17.9863836850        1.3239832091       40.3863828655
  H        18.4722170498        0.6539696534       39.8618110788
  H        18.7463382529        1.7459462788       40.8876384114
  O        16.2187319850        3.4781791217       36.0267939742
  H        15.4206781574        3.6674594858       35.5003127390
  H        16.0876252230        3.7104170396       36.9957524232
  O        11.6987462464       -6.9122723417       41.3422182349
  H        12.6009479280       -6.6577550246       41.7397759300
  H        11.6173720424       -6.2790769131       40.5171334215
  O        13.9965885545       -0.6162076770       39.3155212178
  H        14.6334614120        0.1627117705       39.4632942438
  H        13.8277075358       -1.1055627435       40.1619339229
  O        14.4727683150       -4.8290059030       48.7547548716
  H        14.8974671531       -4.7438752467       47.8900690626
  H        13.5611514503       -4.4030068070       48.6763846143
  O        18.2433538424       -5.9609344091       39.3942600926
  H        18.9625328100       -5.6581038181       40.0407922929
  H        18.7420086913       -6.1398607100       38.5856414333
  O        -1.8248603672       -0.6152132924       31.2364617252
  H        -2.5488635326       -0.0908464886       31.7039648360
  H        -1.0382724076       -0.3109488746       31.7365283785
  O        12.5766829851        1.9327607974       48.1612812036
  H        13.0625696270        2.6293332850       47.6714159317
  H        11.8467443917        1.6115178861       47.6370004766
  O        10.0606341515        1.1697048568       53.7059760691
  H        10.1736257542        0.5446752128       54.4718742071
  H         9.1537940604        1.6194951652       53.9397903148
  O         8.8141556409        4.0577613067       38.8700032164
  H         8.8191810654        3.2176567165       38.3195925573
  H         9.8327761416        4.1669588142       38.8846752596
  O        15.7998252507        3.8546025626       38.7164172501
  H        15.6189885724        2.8638770823       38.9440967458
  H        14.9576039601        4.3995673517       38.6692764252
  O        22.1663797969        0.6498152321       38.5584182513
  H        22.3827035974        0.8473436401       39.5019545201
  H        22.8744543330        0.0493338496       38.2643046421
  O        14.0245698046        1.7367167699       42.3970041730
  H        13.3531425404        2.3050313870       41.8579402077
  H        14.6079650575        2.2675474534       43.0133826057
  O        15.5692571820       -4.0578031568       46.4846207818
  H        16.3070525328       -4.5907372847       46.0562142315
  H        16.0978843291       -3.2289127384       46.7501046502
  O         5.8457475008        4.3778914333       42.5196112373
  H         6.3165775295        3.7528018542       41.8509193367
  H         5.2548683131        4.9095080792       41.9495482999
  O         0.4910687894        0.6294834202       44.7961659415
  H         0.9481722140        1.1351004658       44.0686050275
  H         1.2326778119        0.3037176084       45.3689991408
  O        18.8539349741       -2.4484197420       36.7289805585
  H        18.4360967145       -2.8702421098       37.5201164011
  H        19.3759903139       -3.2039484915       36.3034953740
  O        10.8873997308       -3.4070905020       44.5026445076
  H        10.5766017094       -2.6249905965       43.9658324944
  H        11.7431999035       -3.6780846336       44.1538560947
  O         2.9656372587        1.4612114692       39.8835653622
  H         2.4352257673        1.7004329341       40.6938139875
  H         3.8925028327        1.4886994246       40.1861464754
  O         8.8084203442        2.5818265777       48.9392009743
  H         9.3714648295        1.8399984484       49.0719425871
  H         7.9268488252        2.3022762935       48.5517303228
  O        12.1906982407        2.9709856986       40.9029412929
  H        11.4270153291        2.4128058592       41.1263979697
  H        11.8926359446        3.9103653838       41.1234248311
  O         9.5275522825       -4.7671043294       49.3824676051
  H         9.4464592697       -4.1917637021       48.5293775801
  H         8.8295097853       -5.3871552226       49.3474552294
  O         5.1618474761       -5.4473935164       45.7674654368
  H         5.9026972491       -4.9020377126       46.3136264213
  H         5.6232059949       -5.7086425256       44.8864087761
  O         1.5068279730       -6.1511996185       42.6409952481
  H         1.6711966531       -5.3183531163       43.1515191284
  H         2.3554025478       -6.3489454746       42.1404810800
  O        11.1811072896        2.8544415068       45.1086164657
  H        11.7136162812        2.0762927248       45.3134279695
  H        11.8379905297        3.5645540625       44.9861469173
  O        10.3969976642        0.5709192693       47.1477384317
  H        10.6688095435       -0.3122729875       46.9695177184
  H         9.8019965130        0.7691133638       46.3716558173
  O        21.3284213845       -5.6170909937       33.2667591227
  H        20.7152143118       -6.1598606979       32.6556421436
  H        21.7983471985       -6.2590758579       33.8331115154
  O         7.3702432278       -3.8382397097       34.4796307075
  H         7.9734853394       -4.5289550707       34.1295146733
  H         7.5818764591       -3.0633280878       33.8514831941
  O         7.4079626346       -6.7175608090       37.0300066081
  H         7.7341126141       -7.5124785210       37.5179930894
  H         7.0158724421       -7.0302510600       36.1220314466
  N        12.3425296086       -2.1579829874       41.0020526060
  H        12.0357075988       -2.8491638700       40.3731939233
  H        12.4546185586       -2.5166292883       41.9594373132
  H        11.5217676635       -1.5123604997       41.0855419161
