     193
 CELL 12.4294 12.4294 12.4294 90.0 90.0 90.0 i =    60520, time =    30260.000, E =     -1096.5193757874
  O         1.5329248393       -1.9042667835       29.2486725814
  H         2.4653953314       -1.4585990976       29.2867267187
  H         1.0531490863       -1.0850741087       28.9850338656
  O         3.5394011254       -8.5581645990       25.0445380497
  H         4.5215083511       -8.7966765159       25.0746862933
  H         3.3328989065       -7.9745572190       25.7863972236
  O         6.7029497173       -6.2976168966       26.9470572811
  H         7.3499519545       -6.4339581817       27.6628294454
  H         5.8018051036       -6.6893409696       27.1942264865
  O         3.8737106042       -0.6470733787       29.1538525043
  H         4.1268241565       -0.1223602842       29.9636043233
  H         3.7287052498        0.0278594396       28.4848425202
  O        -6.7500232713       -5.5841196454       23.1213140106
  H        -7.1602508195       -4.9350819351       23.7478625475
  H        -6.5423071511       -4.9936975848       22.3377642831
  O         9.1767221049       -6.8712166491       32.1632718163
  H         8.8436305508       -6.1999375775       31.5580525676
  H         9.4425898998       -6.4384617897       32.9894079538
  O         0.9322274169       -2.5175880826       19.4018241831
  H         0.3554999447       -1.7894747720       19.6901497015
  H         1.1165028427       -2.3791421320       18.4633644303
  O        10.5442521783        3.4821552272       29.7631723401
  H         9.5938951580        3.6075019920       29.7414560093
  H        10.8322644190        3.3026507014       28.8738143014
  O        -0.9117199116       -6.4960286074       17.2548901125
  H        -0.9332217245       -6.0366709545       18.1181034049
  H        -1.3108006983       -7.3696290266       17.2831630351
  O         4.0469844783       -2.8011935021       19.8504332755
  H         4.0894411873       -1.8194320907       19.7778904400
  H         3.9840456847       -2.9966715109       18.8638570676
  O         5.9000858212       -6.2020860167       18.6509769146
  H         6.3715485489       -5.6682609015       19.3553801838
  H         5.1676357036       -6.4691424628       19.2032211206
  O        -2.6817260239        5.5597422316       22.5467881325
  H        -2.0499956529        4.8899198735       22.9111553035
  H        -3.3909961681        5.5478543877       23.2085682630
  O        -5.1173725204       -2.1413331420       29.2174469818
  H        -5.3857501866       -1.6580701460       30.1155026563
  H        -5.9112366881       -2.2404158168       28.6898964818
  O         2.5515327394       -3.9234740393       21.9637517106
  H         2.1337274266       -4.7966195804       21.9120548817
  H         2.4025923472       -3.5519380134       21.0523611191
  O         2.8898957612        0.3358722272       21.4701773518
  H         2.6593074675        1.1870982718       21.9792090091
  H         3.4753925922        0.5857976523       20.6757917113
  O        15.5302454950        1.0423846818       27.0343169998
  H        15.3390546096        1.9673433705       26.8025920349
  H        15.1223215920        0.5826657179       26.2754402037
  O         8.5116217398       -4.6471745516       18.0700605483
  H         8.8638786400       -5.0575015814       17.2328444440
  H         8.0018570155       -3.8811118310       17.7389042261
  O         6.5075918380        1.9178880393       27.8199590326
  H         7.1194699544        1.1149769191       27.8118089246
  H         5.6867656076        1.7614109582       28.3661734559
  O         2.8320491401       -1.5398218146       23.9930610876
  H         3.2055238525       -0.8558573324       23.3916661259
  H         2.4504589740       -2.0723122010       23.2968148163
  O         4.2874170751       -7.2400530880       27.9301906546
  H         3.5540566034       -6.7707987797       28.3706113037
  H         4.3783084115       -8.0730349053       28.4511977001
  O        10.8706277528        3.2163339176       14.4239726146
  H        10.3197547729        2.5143997865       14.0167166210
  H        10.5208935462        4.0313981534       14.0121807545
  O         1.2311439116        3.2027934933       27.2924515865
  H         0.3072634780        2.8997247074       27.1490517892
  H         1.4675996317        3.3754649333       28.2407672576
  O        10.7542088591       -0.8508254196       30.7800762196
  H        11.4523336069       -1.3382221546       30.2638594661
  H        10.4789120882       -1.5646145851       31.4112984843
  O         2.0649948732       -9.1975924853       17.8731498651
  H         2.1655772577       -8.3657810633       18.3922691236
  H         1.4572885793       -9.8286893082       18.2807400873
  O         0.5235332687       -0.2599511045       25.4520051689
  H         0.6040386771        0.5478007139       24.8973230186
  H         1.1464229452       -0.9758218902       25.2085230392
  O         9.6881748899       -5.4285434011       15.6469769578
  H        10.5546680338       -5.7335385698       16.1007192534
  H         9.8151686902       -4.6494797281       15.1330485321
  O         8.6455132777      -11.4656917845       30.5616091257
  H         8.4624598133      -11.5366881161       29.6157573787
  H         9.4506538150      -12.0790822698       30.5648210080
  O         6.0191192118       -4.2426062821       20.7577629934
  H         5.2470617301       -3.5943193432       20.5521300585
  H         6.8090324552       -3.6739775959       20.7598918076
  O         1.1595136218       -6.5058873507       22.4645190490
  H         1.5436851935       -6.9397101186       23.3035859334
  H         0.6431500561       -5.8134800647       22.8199564474
  O         0.5190241306      -11.9999139033       28.7063822355
  H         0.3406505977      -11.4266458200       29.4962221796
  H         1.0798410959      -11.4314596264       28.1458431765
  O        -1.5080652646       -3.1343336431       26.2671485309
  H        -1.9549313812       -2.3137555116       26.5031377292
  H        -0.5783043324       -3.0184192885       26.6582516335
  O        -2.2004435221       -3.1087537437       32.1292449226
  H        -2.8447203410       -3.7541451876       31.6789199908
  H        -1.5642828462       -3.7021209802       32.6476519486
  O         8.5097366334       -9.4741985077       20.1796970301
  H         8.9176939786       -8.6093921852       20.0478038051
  H         8.4711979372       -9.8252814008       19.2886425589
  O         0.3048230987       -0.5565203131       21.5451996862
  H        -0.1981698539        0.2679709820       21.7746815736
  H         1.2456584797       -0.2203564766       21.3073970269
  O        11.3298973485       -4.6207494126       21.8931396635
  H        10.9673985939       -5.4995072261       22.3102791391
  H        11.7449599920       -3.9904570988       22.6076206668
  O        12.3039190131        1.4542889876       18.7417459496
  H        11.4829843134        1.9757217759       18.6500253088
  H        12.1307403363        0.6454784233       19.2634315965
  O         7.6057619137       -6.8342824134       24.4611410304
  H         7.4978920399       -6.6666471014       25.4373137992
  H         6.8709049116       -6.3268705010       23.9423858894
  O         7.9479357956       -2.2063230371       21.1483876601
  H         8.8248978044       -2.3959768806       20.8404480787
  H         7.8930969162       -2.7560866410       21.9772064928
  O         4.2261186142       -4.1837631513       29.8367287848
  H         4.7219412904       -3.9869050878       29.0126531990
  H         4.8772604857       -4.6691586926       30.3690106376
  O        11.7445486074       -8.6752270316       22.9290143062
  H        12.1372654943       -8.1588035644       22.1748166915
  H        11.4191286796       -9.5525085527       22.4030826385
  O        -4.0780803147        0.0857853805       15.4227442058
  H        -4.2969299985       -0.7752136234       15.8446260674
  H        -3.1594537239        0.0124586005       15.1476682061
  O         7.6987935762        4.2107767392       29.3698354533
  H         7.2554171260        4.6668615153       30.1058853317
  H         7.1017976575        3.5613171989       29.0652313542
  O         6.8903937423       -0.7706029990       31.5053114875
  H         7.2696490645       -1.2970994907       32.2376563080
  H         7.5259189552       -0.0243050876       31.3649656690
  O         5.4531583590        3.0229153689       20.2710192080
  H         6.4231167546        3.1085598848       20.5191173627
  H         4.9608241216        3.6767844875       20.8664903516
  O        10.7088061694        1.7637971963       21.5891379343
  H        10.1666703289        1.1091271512       22.1823974714
  H         9.8806813642        2.1475174793       21.1079017717
  O        17.0884930839        0.5185307614       19.3013840076
  H        17.3266824095        1.4449911567       19.5837553306
  H        17.8816975130        0.0772185610       19.5432431185
  O         9.5510407524       -0.1453517085       23.0134123820
  H         9.1846494923       -0.7693465112       22.3091285221
  H         8.7919618365        0.3044158707       23.5200441600
  O        10.8039118494       -0.4008513081       27.1748384323
  H        11.5273625050       -0.1247771282       27.8089479766
  H        11.3340325950       -0.2315571766       26.3697372357
  O         1.7433113229        2.0503724705       23.5844799276
  H         2.2962042433        2.6896958796       23.9987910086
  H         1.0006290118        2.6053932985       23.2264503477
  O        -4.5712494826        0.8715696341       24.7696166873
  H        -4.6947184086        0.2724401346       25.5204011665
  H        -5.3470500238        1.5974057723       24.8047641290
  O        12.6427425489       -5.1302127312       19.3443164954
  H        12.3497568834       -5.1242889224       20.3113125294
  H        13.0120436385       -4.2014290460       19.2873941835
  O         4.6730392081       -3.6178036886       24.9641947396
  H         4.1824347801       -3.0141544439       24.3998313792
  H         3.9632983117       -4.2049975527       25.4378515263
  O        -0.3908213585       -2.6759464453       23.5136827805
  H        -0.2920113651       -1.8747328136       22.9019408449
  H        -0.6821764239       -2.3077248393       24.3746833070
  O         4.5931157775        3.0017953684       29.6252840609
  H         5.1103340776        3.0442581018       30.4787665272
  H         3.6647497560        2.8657859805       30.0011611081
  O         4.0427756024        4.8205652306       21.9540868574
  H         4.6627641758        5.5297634243       22.3895633443
  H         3.6923199047        4.3347684755       22.7117007481
  O         1.9755335237       -5.4856224763       28.9607540704
  H         2.5575483382       -5.0487587768       29.6526391560
  H         1.0282670511       -5.5280814053       29.2474081902
  O         1.1015655037       -2.6971866387       26.5553776307
  H         1.4898211477       -3.5660043995       26.2499825355
  H         1.4257820902       -2.5369286003       27.4491382358
  O        -2.0032796012       -6.6889821736       25.7164900586
  H        -2.3464014395       -6.1689061964       26.4738902599
  H        -2.6794981098       -6.5416698200       25.0075408696
  O         6.3771393554        3.0807280631       25.2370347549
  H         6.4241978849        2.9015149044       26.2543176886
  H         6.8832888347        3.8920978635       24.9239208756
  O         5.7063130260       -3.5342970851       27.6741254826
  H         5.2904012050       -3.1449305806       26.8294413847
  H         6.1877825395       -4.4061800444       27.4760857283
  O        13.3471150708       -7.1064490725       12.8892433604
  H        12.3962519775       -6.9591524095       12.9138079195
  H        13.4262010414       -7.8363024788       13.5937995609
  O         2.5305631968       -5.0780424030       13.6576589956
  H         2.5083156020       -5.4037613632       14.5793000214
  H         1.9346619981       -5.7614173020       13.2145718821
  O         2.6436902541       -7.0645045650       19.2452994291
  H         2.7207835086       -7.1587484877       20.2302878671
  H         1.7904032796       -6.5155308345       19.0976352985
  N         8.1395762341       -3.7710980071       23.3460395400
  H         9.0672232972       -4.2167934047       23.3140195832
  H         8.0890742222       -3.4235323738       24.3026247356
  H         7.4895498373       -4.5150090013       23.2840583055
