     193
 CELL 12.4294 12.4294 12.4294 90.0 90.0 90.0 i =    56920, time =    28460.000, E =     -1096.5396352694
  O         1.1172771590       -1.6847723925       27.3800629447
  H         2.0742375731       -1.4316988733       27.3234259676
  H         0.6927807749       -0.8259031272       27.6392462147
  O         3.4859210784       -9.5760472237       23.4297092714
  H         4.4169264318       -9.9102648994       23.2095892749
  H         3.4235172719       -8.5867177584       23.6743510002
  O         6.1796939068       -6.2999808858       24.8600126469
  H         6.8873151455       -6.5906704677       25.5109324923
  H         5.2446655537       -6.6680107861       25.1050081782
  O         3.8181703608       -0.8413197636       27.1262008921
  H         4.1016475281       -0.6666620126       28.0344841733
  H         3.7729675172        0.0207009166       26.6416017128
  O        -7.2858605414       -5.6901279589       20.7242595121
  H        -7.5752727581       -5.0127832260       21.3606580883
  H        -7.0514424689       -5.2101046278       19.8957772726
  O         7.8419806557       -6.1638163198       29.9294490945
  H         7.2200080372       -5.4524051804       30.2172137729
  H         8.5314343710       -6.1499106914       30.5972347718
  O         1.0149815782       -2.5699131714       17.6335211559
  H         1.0378083620       -1.9256668768       18.3956396094
  H         1.2597694274       -2.0957949797       16.7998978095
  O        10.1429903508        4.2991416143       27.5144052632
  H         9.3082293026        4.6516064892       27.9325501644
  H         9.8375840764        4.0789807538       26.6124953026
  O        -1.4538787930       -5.6017306157       14.9923072058
  H        -1.3010310270       -5.3138678638       15.9138790554
  H        -1.4642128108       -6.6183416569       15.0710398706
  O         4.1182282849       -3.0419167768       17.3683014985
  H         3.2204797051       -2.9640266696       17.7939924466
  H         3.8766082214       -3.3576559431       16.4222480081
  O         5.1540209998       -6.2868381967       15.6476007432
  H         5.7984045809       -5.5047526517       15.8266193638
  H         5.0898898645       -6.7201699003       16.5315660330
  O        -3.4554592904        5.3514514996       20.4604642379
  H        -3.0975939022        4.5710245250       20.8515512811
  H        -4.3164029746        5.5700949817       20.8646061065
  O        -5.8531977783       -1.6445644560       26.2805951714
  H        -6.6368698734       -1.1867476559       26.6356010333
  H        -6.1737663956       -2.4329359663       25.7034066701
  O         1.4105611714       -4.4256893872       20.8266665356
  H         2.0230998741       -3.8324685232       20.3168546819
  H         0.6127220059       -3.8546503982       20.8971004910
  O         1.6940013089        0.2229899713       19.4575738502
  H         1.5152391199        1.0562806123       19.9262517649
  H         2.2576143935        0.3768685191       18.6469592365
  O        15.0817204938        1.5468538171       25.7093455196
  H        15.5964921400        1.9860475268       24.9433654909
  H        14.3425168584        1.1576824890       25.1911438586
  O         7.2374846652       -4.1151616054       15.4169061164
  H         7.5433508419       -4.3309309574       14.4794315923
  H         6.7807304565       -3.3033831243       15.2749303459
  O         6.3234846261        2.2302010498       26.3085377585
  H         6.7883688283        1.8773250386       27.1430041790
  H         5.4206098043        2.1645370622       26.5837939482
  O         3.2407225986       -1.9513746977       20.4842244180
  H         2.9047169641       -1.0196929636       20.3520497911
  H         4.1247252991       -1.8367095332       20.2041960074
  O         3.4007864431       -7.1803267810       24.6458620705
  H         2.9130056496       -6.3987338926       24.4206123039
  H         2.7226852226       -7.6207039419       25.1937113147
  O         9.1448058519        3.5178755470       12.7917858031
  H         9.5423185362        2.6419773481       12.5055979117
  H         9.1514490177        4.1883114555       12.0570753118
  O         1.3208610998        4.0726656247       25.8473922455
  H         1.5804066577        3.1235997617       25.7747777144
  H         1.1269595759        4.1028226065       26.8221437582
  O         9.6217744869       -0.7092360375       27.6127893984
  H        10.5011951388       -0.3149791082       27.5795751584
  H         9.5776874267       -1.2373847695       28.3657889530
  O         1.4871543663       -8.2517977844       16.1720108510
  H         1.6256452209       -7.3690035672       16.5237868311
  H         1.0305788615       -8.8046691305       16.9157454744
  O         0.6519826637        0.4722212504       24.2210383144
  H         0.8687373450        0.9004338343       23.3660293882
  H         0.8888454214       -0.4492150530       24.2952064955
  O         8.8632034495       -4.8560224900       13.2281612936
  H         9.5970189041       -4.9715961946       13.9064645291
  H         9.3624587318       -4.1296558136       12.7044106266
  O         7.7556582673      -11.2859838716       28.4152592198
  H         7.4320113839      -11.8205622549       29.1397439294
  H         8.3851207290      -11.8457665750       27.9335949561
  O         5.8311287448       -4.2343081646       18.6624521517
  H         5.0341708621       -3.8216237387       18.1818723872
  H         6.5233814120       -3.4926808005       18.8916833061
  O         0.5628237682       -7.4565366410       21.1543983836
  H         0.5832263578       -7.1495248516       22.0799993309
  H         0.1087294731       -6.6911219210       20.7548605547
  O         0.0402848433      -11.3927893045       27.7885080545
  H        -0.3799052995      -10.9538391800       28.6085984339
  H         0.9035539483      -10.9446341162       27.6770323962
  O        -2.2189290628       -2.8902840507       24.0891559947
  H        -2.8139097926       -2.1221420842       24.4203451404
  H        -1.3362459968       -2.7904785780       24.5370329501
  O        -3.0926083138       -2.9578263886       29.5115896296
  H        -3.7772815929       -3.5364599772       29.0051014251
  H        -2.3223477302       -3.5549260676       29.7093312227
  O         7.5998305656       -8.9775480539       17.7941540199
  H         7.5189868776       -8.0507398522       17.5909820219
  H         7.6749999612       -9.4773499588       16.9671960552
  O        -1.1663913021       -0.7769413412       19.3143265315
  H        -1.7324770822       -0.0887961434       19.6817286051
  H        -0.2818895231       -0.4166403423       19.4700198240
  O        10.9541195917       -5.3659701342       19.9689104785
  H        10.2052775719       -5.9070312018       20.2141979383
  H        10.8666625391       -4.5737441048       20.5928741556
  O        11.4328329871        2.5385084453       17.0766940248
  H        10.9665868424        3.0676030285       16.4179347118
  H        10.8493297162        2.2467140170       17.8458817228
  O         6.7388456758       -7.1353110184       22.3980356211
  H         6.3453072508       -6.8912389370       23.3064738016
  H         6.1553708352       -6.6922929433       21.7321830638
  O         8.1030243394       -2.6416066135       19.5428310695
  H         8.7108732195       -2.8584208079       18.7219564663
  H         8.3286418467       -3.1982592709       20.3533393889
  O         3.2607888871       -4.4564771156       27.4925332918
  H         3.6077397505       -4.1093600847       26.6556766102
  H         3.8236471832       -5.2324677233       27.6165381870
  O        10.6092963606       -9.1087012009       21.3681418574
  H        11.4589754717       -8.6920490919       21.1059328384
  H        10.3562052265       -9.5806008621       20.5320539119
  O        -3.6463892289       -0.6304726325       12.1585029941
  H        -4.3820858769       -0.8613143622       12.8199169506
  H        -3.0518487907        0.0389935503       12.5694231973
  O         7.4377636998        4.7741813660       26.9792266192
  H         6.6872760283        4.9817450617       27.5574991696
  H         7.2525856326        3.9370893956       26.4583827102
  O         5.8569263147       -0.5216811225       30.2218311481
  H         5.5092342509       -1.4217235334       30.2540506497
  H         6.4877125287       -0.2530449041       30.9654278824
  O         4.8466011295        4.2376719894       17.6292956182
  H         5.6122533588        4.1649408461       18.2255969383
  H         4.0658066639        4.5851186405       18.2409907485
  O         9.5303018285        2.0831963671       19.1366071229
  H         9.0158441736        1.1610648492       19.0956343779
  H         8.9064314697        2.7551169380       18.6598450869
  O        15.8965790151        0.7931147796       17.4565800611
  H        15.9380847260        1.4383828739       16.6933145712
  H        16.8249584604        0.5274646918       17.6616480997
  O         8.0259588494       -0.0620340846       19.6806259963
  H         8.2037760626       -1.0696991482       19.7052998451
  H         7.8832487041        0.2225773780       20.6405878829
  O        10.7348509013        1.2493217644       25.5104851530
  H        11.3022818493        1.3339730153       26.3321564047
  H        11.3761735515        1.2468891828       24.7479999796
  O         1.1156516591        1.9420197277       21.8672194751
  H         1.9586151850        2.3417705169       22.0381600606
  H         0.5661655639        2.6923796450       21.6966637055
  O        -5.0337929032        0.3966687883       22.1229906814
  H        -4.3867781233        0.3983458608       22.8799118688
  H        -5.5412109063        1.1951067812       22.3638282989
  O        11.6533812164       -4.5239766686       17.5116449859
  H        11.4605985593       -4.8561995546       18.4079582593
  H        12.2684953146       -3.7446404125       17.5290207562
  O         3.9028985140       -3.8947467522       22.6730447917
  H         3.4309164373       -3.1857359591       22.1735434912
  H         3.0860119070       -4.2802984415       23.1287985838
  O        -1.1755772080       -3.0097851199       21.1398997848
  H        -1.1337946160       -2.2649829577       20.4636634187
  H        -1.5573864742       -2.6260304443       22.0121368446
  O         3.9323185649        2.7248581948       27.9552591117
  H         4.5349024409        3.1469107747       28.5843474471
  H         3.1302218618        3.2795467496       27.9344883895
  O         3.0895314442        5.4600239175       19.5470787988
  H         3.6713106441        5.9990272965       20.2453689666
  H         2.3170230054        5.0937361717       20.0668419960
  O         0.8072624110       -4.7923697060       26.4684067082
  H         1.4813212223       -4.8256843712       27.1850778052
  H        -0.0946871332       -5.0466422198       26.8968047578
  O         0.8904957228       -2.2183614467       24.4276866344
  H         1.2472464156       -3.0417163599       24.0361793858
  H         0.8205743686       -2.3520279625       25.3936199083
  O        -2.9905291996       -6.6354153470       23.7656546064
  H        -3.3505248142       -6.0535214562       24.5201765870
  H        -3.7888643797       -6.8499931267       23.2379164470
  O         6.2459022557        2.5860902011       23.3319142777
  H         6.8186778650        2.5821857760       24.1850913080
  H         6.3980811855        3.5025650148       22.9236653920
  O         4.8921053942       -3.9073065269       25.1590197799
  H         4.5165934348       -3.7148638862       24.2614983670
  H         5.4343141459       -4.6769141880       25.0114690729
  O        12.4051471420       -6.8429024367       11.3660623447
  H        11.4279785131       -6.7194223805       11.4560565725
  H        12.6594576662       -7.4071609930       12.1473585729
  O         1.8728026857       -4.8409577322       11.6959033634
  H         1.4651286197       -4.8485170084       12.6469577100
  H         1.1784965825       -5.4791954479       11.2991723323
  O         1.8875414737       -5.6675964996       17.2826639002
  H         2.1648855109       -6.0081683092       18.1667069657
  H         0.9616799301       -5.4608915396       17.4328797973
  N         8.2557959310       -4.1072554937       21.9107385672
  H         8.9824721711       -4.8055202168       22.1768040135
  H         8.4676894809       -3.2566451139       22.3854051825
  H         7.3547046035       -4.4966943704       22.1513618840
