     193
 CELL 12.4294 12.4294 12.4294 90.0 90.0 90.0 i =    63320, time =    31660.000, E =     -1096.4897130485
  O         2.8061823153       -2.0727406003       30.2348049673
  H         3.7074973694       -1.6164093711       30.2911138344
  H         2.2461135930       -1.2498828848       30.1324359772
  O         4.7304418289       -9.5928364768       26.9428686266
  H         5.6804571406       -9.9228291369       26.9802982806
  H         4.7603586809       -8.9219542337       27.6466270879
  O         7.2965742834       -6.5620542987       28.5839558758
  H         7.6114306130       -6.6134130515       29.4820193617
  H         6.3267198409       -6.8490929071       28.7051092817
  O         5.0350496006       -0.7888986813       30.4381337878
  H         4.8027378520        0.1536601393       30.7894656909
  H         5.5941177468       -1.2920719176       31.0650618990
  O        -6.8559390203       -6.4318588911       24.9025083865
  H        -7.1483046519       -5.7072422394       25.5177598437
  H        -6.7356083797       -5.9627283939       24.0336389022
  O         9.2709325700       -6.3472324824       34.3140684527
  H         8.5855109179       -5.6540629910       34.2997453977
  H         9.4453926499       -6.4395851135       35.3153756397
  O         2.0683969544       -2.6433159497       20.4022814839
  H         1.7349971516       -1.7187123514       20.6123056948
  H         2.3340163302       -2.5828498524       19.4291187791
  O        11.0170456878        4.1895905186       31.2894312647
  H        10.0581528073        4.2933248398       31.6640080863
  H        10.8495626337        3.8471451658       30.3464269124
  O        -0.0525531461       -5.9295051240       18.4287268701
  H        -0.0803593828       -5.4424716383       19.3336911897
  H        -0.4374131781       -6.8593456176       18.6190413873
  O         4.3199520829       -3.5110324326       21.6093464999
  H         3.5815186404       -3.0238350647       21.2487433136
  H         4.2183255417       -4.3722532377       21.2503659837
  O         6.0022722647       -6.9158907649       20.3643539207
  H         6.4029480198       -6.1589312487       20.8298445533
  H         5.4410725255       -7.3882909458       21.0389324286
  O        -2.3917686945        5.9009174701       24.4751299268
  H        -1.7578792029        5.2413503238       24.0123026689
  H        -3.0039805334        5.3329618661       25.1092566689
  O        -6.1311777057       -2.2655054563       32.2337130691
  H        -5.8812961381       -1.8593514214       33.0747683495
  H        -6.9415585050       -2.7257629651       32.4814864421
  O         2.8257088730       -4.5619636146       23.8634404975
  H         3.4197041732       -3.9476957634       23.3166334519
  H         2.8595812624       -4.2787378219       24.7977415742
  O         3.0129601404        0.5714540056       23.8761010260
  H         2.6384461219        1.3876809909       24.3702650228
  H         3.7487543389        0.6843386579       23.1814418668
  O        15.5999934857        0.4649403270       28.0918072830
  H        16.0072914300        1.2670606333       27.8209197349
  H        16.2148862462       -0.1760821060       28.4179817551
  O         8.2887735800       -4.3400010987       19.8119057976
  H         8.3658966028       -4.9334231014       19.0571233845
  H         7.7405916021       -3.5529574704       19.5116866779
  O         6.7097076799        2.5716801355       30.0822242976
  H         6.9132269521        1.8588467243       29.4652891296
  H         6.0357301419        2.1918067402       30.6705628148
  O         3.5206733827       -1.8062021927       25.3539200224
  H         3.3625387337       -0.8546427643       24.9873467779
  H         3.2224714812       -1.7115144375       26.3182714415
  O         4.9492587616       -7.7226907579       29.1488548807
  H         4.2175931422       -7.1404956510       29.5861381589
  H         5.4075480247       -8.1968174040       29.8846445283
  O        11.2333799814        3.3748041972       16.1359160431
  H        10.9300069592        2.5463912982       15.6315836441
  H        11.2585373222        4.1670193284       15.5192739150
  O         2.0156783835        3.1357054274       28.7966824684
  H         1.0250707024        2.9331349536       28.7317934566
  H         2.0986375736        3.4165976915       29.7268823369
  O        10.2842150650       -0.2889668182       32.6615272725
  H        10.4151695556        0.3704172138       33.3740755172
  H        10.4302001095       -1.1377412925       33.1589510023
  O         2.5380949660       -8.7656772752       19.2783996099
  H         2.6559108187       -7.8920602156       19.6758138762
  H         1.7552926621       -9.2035966997       19.7679986228
  O         0.6180934615        0.2698449640       26.6724769460
  H         0.8268118577        1.0386797928       26.0626867789
  H         1.3770620926        0.1219189522       27.3353298236
  O        11.1391713324       -4.9878394271       16.1803438563
  H        11.5463226271       -5.2061145703       17.0976423768
  H        11.2169203507       -4.0500171518       16.1025216449
  O         7.2217101740      -11.6864060665       32.6680891106
  H         7.4042875158      -11.4531602650       31.7529622107
  H         7.9138069619      -12.3718233160       32.9004964048
  O         6.5264208427       -4.9404400872       22.6318812387
  H         5.9409886298       -4.2827094332       22.1249722552
  H         7.3103465069       -4.5136001457       23.0041619679
  O         1.8582446154       -6.9903437421       23.4679112566
  H         2.5957692596       -7.4873001666       23.8715067349
  H         2.1637822296       -6.0902237253       23.6147994987
  O         1.0303296198      -12.1097257826       30.2270939834
  H         0.9586747789      -11.4962869862       31.0257166975
  H         1.4983630131      -11.5511473769       29.5475829421
  O        -0.8748891320       -2.3720548549       28.3160552649
  H        -1.1084004935       -1.8447168178       29.1181015915
  H         0.0745592140       -2.5236262635       28.3074269562
  O        -2.1951054783       -2.7584145968       33.8656203782
  H        -2.2634969032       -3.5068656044       33.1685688891
  H        -1.8028330454       -3.0818741551       34.7267401322
  O         8.6599748570       -9.1554912237       21.5994829057
  H         8.6426786943       -8.1694259361       21.6107318140
  H         8.2144032133       -9.6737823340       20.8914820549
  O         1.1838793659       -0.4255749446       21.9698572234
  H         0.8637381604       -1.0845537637       22.6743710215
  H         1.8454192696        0.0928017753       22.4682528208
  O        11.4738741804       -4.2314500979       23.5307704124
  H        11.1476689851       -5.0572938745       24.0560631395
  H        12.0363763281       -3.6519584511       24.0840415494
  O        12.7190865194        2.0301134468       19.9945027073
  H        11.9512705234        2.4513520396       19.6256802711
  H        12.4308786390        1.4030761669       20.6937369866
  O         8.1810624055       -7.7302952605       25.9188181589
  H         8.1500406972       -7.2497558399       26.8020280695
  H         7.4008571631       -7.4715374659       25.3628102929
  O         8.5436095240       -3.7018054925       24.0418868581
  H         9.3046796714       -3.3227460885       23.6084056885
  H         8.6611801082       -3.7974302694       25.0388533360
  O         4.6414476037       -4.3901812784       31.3486635390
  H         5.2622616402       -4.3322229637       30.5642338193
  H         4.8290702896       -5.3198099704       31.7944035854
  O        11.7964538787       -8.3023886697       23.6393875903
  H        12.6480879955       -7.8988728436       23.3466847237
  H        11.6624845502       -9.0242557980       22.9837946716
  O        -4.7539998141        0.2412659980       16.5403288718
  H        -5.3872322802       -0.4977329040       16.5608022493
  H        -3.9955805247       -0.1292603560       17.0297543723
  O         8.0755166964        4.6257333054       31.4384128807
  H         7.3659740064        4.7152457899       32.1418483976
  H         7.8801048083        3.7476259385       31.0177860127
  O         7.9228756602       -1.6124081030       34.8251134167
  H         7.6532704974       -2.2185857214       35.5667583273
  H         8.7292950652       -2.0362447753       34.4283239996
  O         5.4817584298        3.1404827215       21.6584532923
  H         6.4314037177        3.0196837273       21.9966043336
  H         5.1638783619        3.2620732462       22.6056788672
  O        10.6895934616        1.7050056862       22.3237809084
  H        10.3590804738        1.0743073479       23.0523366446
  H         9.9303748214        2.3528909001       22.1293273224
  O        17.5951857017        0.2243965377       22.1569016348
  H        18.2331598327        0.9777469726       22.0298994534
  H        18.1527548734       -0.5650412867       22.4693209376
  O        10.0243878908       -0.5222407332       24.1309335777
  H         9.0616984555       -0.6981443812       24.1081064615
  H        10.3009344941       -0.1703576646       25.0243332503
  O        10.6837221484       -0.1285239752       29.8760361682
  H        10.4123000597       -0.2276595742       30.8346176910
  H        11.6042907640        0.1588115814       29.8939258718
  O         1.3578554832        2.2899677924       25.0188152170
  H         1.7083537209        3.1250786096       25.5218010834
  H         0.5409352936        2.6512703614       24.6166866407
  O        -1.9964766957        0.5232532405       26.9813899661
  H        -0.9803325171        0.3982830503       26.9703566662
  H        -2.1971138120        0.1818462633       27.8828149362
  O        12.7446203964       -4.7972749155       20.8299985965
  H        12.3891627708       -4.7065988088       21.7425476848
  H        13.2935334015       -4.0175002886       20.6462072412
  O         5.1447276153       -3.8358797764       26.6536329875
  H         4.8914928653       -3.1335681318       25.9552901167
  H         4.2467485792       -4.2537613007       26.9375778406
  O         0.4958849329       -2.1092494733       24.5479830045
  H         1.3993325531       -2.4214840892       24.7594563744
  H         0.2652913349       -1.5466517460       25.2852792533
  O         4.4746984293        1.6655051099       31.7679738193
  H         4.8273297554        1.4921034539       32.6821817035
  H         3.9358491601        2.5077646230       31.8325051492
  O         4.3138799860        3.5553894974       24.2954528700
  H         4.7120801845        4.4529225666       24.4477900972
  H         4.3074360658        3.2106851220       25.2300483583
  O         2.7757689655       -6.1718233299       29.6930639033
  H         3.1309222464       -5.3531864938       30.2174094473
  H         2.0184030093       -6.4410617218       30.2240377711
  O         1.8253616976       -2.6806652024       27.8193913263
  H         1.9935878608       -3.5809173488       27.4700503241
  H         2.2304908999       -2.5490268455       28.6754421558
  O        -0.5952144814       -6.8253750697       26.8420825354
  H        -0.7513054460       -6.0569005100       27.4903882258
  H        -1.0491198401       -6.5635385397       26.0800719551
  O         7.3056435467        2.0255276565       26.6611952613
  H         7.7440510725        1.1669424334       26.3632317202
  H         7.7880960608        2.7656282868       26.2045722984
  O         6.0973718472       -3.8183946041       29.3209822316
  H         5.6221659792       -3.4819001385       28.5087480135
  H         6.6518178307       -4.5795432004       28.9856678623
  O        14.4964571168       -7.9280547485       14.1552921598
  H        13.5839326156       -7.6385118309       14.2224140440
  H        14.6147032698       -8.4784151972       15.0240357847
  O         2.6947970210       -5.2207873174       14.5642906328
  H         2.4412698933       -5.3529370851       15.5389338545
  H         2.8338256292       -6.1529705339       14.2534193089
  O         3.0231219733       -6.0755213775       20.8609775345
  H         2.7143916249       -6.5240970957       21.6949991620
  H         2.2205214367       -5.4873736027       20.8206263098
  N         8.5505723384       -3.5414516974       26.8011224166
  H         8.5883310452       -4.2794557094       27.4751206954
  H         9.0507464379       -2.7526764253       27.2019708800
  H         7.5331454590       -3.2895791477       26.8745296221
