     193
 CELL 12.4294 12.4294 12.4294 90.0 90.0 90.0 i =    74120, time =    37060.000, E =     -1096.4936218260
  O         3.8769039681       -1.5353511348       37.6160968127
  H         3.8356563797       -0.6415809025       37.2674125350
  H         3.0297352317       -1.5454775961       38.1343303509
  O         4.7582542495       -8.8288397796       33.5735790967
  H         5.6633848031       -9.2215277156       33.5743465908
  H         4.8504948845       -7.8308138331       33.7028445002
  O         8.9063112480       -5.0521857021       34.1838693987
  H         9.8853353680       -5.0691075434       34.0618233448
  H         8.7159984547       -5.8300399211       34.7363445780
  O         6.9259342242       -1.2435044399       35.3087997068
  H         6.3869269161       -0.6900143400       35.8535988846
  H         6.4425621844       -2.0377778356       35.1105606642
  O        -4.7923286400       -6.5783071440       30.9692959286
  H        -4.9785862362       -5.6958906555       31.4837875076
  H        -4.2260644750       -6.4553991796       30.2189729861
  O        13.6055350871       -4.2043390430       42.3156493842
  H        13.0207823884       -4.1599921302       41.5285569045
  H        13.5694733040       -5.1794463623       42.4271204148
  O         5.7161953704       -2.7186258897       26.6434801034
  H         5.3190753074       -2.0713007526       25.9966262182
  H         6.5433805904       -2.9743601884       26.2242521891
  O        12.3841917635        2.9452536233       37.3956445684
  H        11.8900600822        3.7034176764       37.7408787451
  H        12.5966504874        3.1866739462       36.4863022517
  O         1.2691177377       -7.0352240491       26.5387261617
  H         2.1175457249       -6.7616310308       26.0812916580
  H         0.8898603174       -7.7589821125       26.0022747039
  O         8.2595962852       -4.2903379712       27.0156474852
  H         7.6947222856       -4.7078431148       26.1933439667
  H         8.4689440734       -5.1639223319       27.4955774392
  O         8.7632729675       -6.6715583756       28.3549193897
  H         9.5441865671       -7.3470522790       28.2245904258
  H         7.9165820226       -7.1537950201       28.1858884968
  O         0.7241217099        5.4239368695       29.8313697422
  H         1.5586122905        4.9484712479       29.9502846938
  H         0.1037755804        4.9313924950       29.3241792797
  O        -3.8516771866       -0.1734017301       38.3646505425
  H        -3.1048071477        0.0940694742       37.6945881544
  H        -3.4497667245       -0.9843879350       38.7845075307
  O         5.2142914479       -3.2210801897       29.7659744930
  H         5.9875688817       -2.7323064344       29.3441150546
  H         5.2932259120       -2.8471470518       30.6518677185
  O         5.8332701708        0.3184230465       31.0647640368
  H         4.9053933519        0.7451391725       31.0567841614
  H         5.9873114704       -0.0122310423       30.1242186046
  O        15.5331865862       -1.3875793425       33.9514424320
  H        15.2719218932       -0.8320545636       34.7265599521
  H        14.8782798238       -2.0671362491       33.8287825551
  O        12.1087439643       -4.9559123554       27.4293564849
  H        12.7410978987       -5.7222255030       27.2357050523
  H        12.0115278039       -4.3722394434       26.6825735273
  O         7.9990178492        2.7649579436       36.1924942424
  H         7.8438739420        2.4866830930       35.2378165616
  H         7.4381921769        2.1489742280       36.7590805565
  O         5.4182968551       -1.9900301367       32.2662170491
  H         5.6822688250       -1.1376879312       31.9148473130
  H         4.5797660412       -1.8386517836       32.7497122022
  O         8.4605719113       -7.0644942875       36.1069383357
  H         7.8451496085       -6.6980267091       36.7625005903
  H         8.3826651140       -8.0794660220       36.2206494523
  O        12.8631294962        3.1896366035       22.1418490350
  H        12.9720061749        2.3528528251       21.6023978948
  H        12.6322520173        3.9436349631       21.5547396138
  O         3.2285581289        3.4722013266       35.9370876381
  H         3.7432817698        3.4929012099       35.0766822069
  H         2.3124054319        3.6947392027       35.6189637449
  O        12.1675826155       -0.7765461821       36.0660929277
  H        11.3193257076       -0.2238881261       36.2195095823
  H        12.1524531288       -1.4867419682       36.7983866356
  O         4.3702321762      -10.0702713114       25.7501677504
  H         3.9140279459       -9.6654308873       24.9782542406
  H         3.6752148924      -10.2664593797       26.3685582312
  O         1.2883675277        1.0847981794       32.8005322876
  H         1.9499132637        1.6466366021       32.3468732311
  H         1.8370280366        0.4586754595       33.2904519063
  O        11.7435220368       -4.9582337793       21.6213425941
  H        12.1812359457       -5.0065964582       22.5158603913
  H        12.0554319182       -4.1451973822       21.2364611946
  O         9.4142924025      -10.3909470070       40.1508695800
  H         9.4254444295      -10.7828598757       39.2612687349
  H        10.2462888302      -10.6398399584       40.5836602898
  O         9.9486608475       -2.3586304399       27.1699132302
  H         9.2842314788       -3.0808659836       27.1125809741
  H        10.1841973177       -2.3157071620       28.1231769485
  O         5.2428877295       -6.1676430993       29.7505423363
  H         6.1015358233       -6.5188783531       30.0755807389
  H         5.3443630342       -5.1063867974       29.7062789422
  O         2.2818858342      -12.0403385787       35.9131473379
  H         1.3606218022      -12.2782260918       36.2067581003
  H         2.4677713226      -11.1129930334       35.9118596272
  O         0.7765957465       -2.9617072873       32.6215967239
  H         0.0581815944       -2.3226281528       32.8062269608
  H         0.7867804029       -3.1218620757       31.6130600277
  O        -0.3039085646       -2.7759052289       38.1474127026
  H         0.3739486439       -2.2839020714       38.6316061991
  H        -1.1418738169       -2.4787064294       38.5729179452
  O        11.1648991151       -8.0635133504       27.8578152298
  H        11.2381917778       -7.6256536680       27.0202903037
  H        10.4924315592       -8.8247748622       27.8640568302
  O         1.6874916649       -1.1452136785       26.7164091184
  H         1.9066973633       -1.2021380041       27.6829651669
  H         1.7224622671       -0.0642083847       26.6547001871
  O        15.4552789475       -2.0082775290       28.9854717030
  H        14.8548048169       -2.8071050996       29.2048177680
  H        16.3512557812       -2.1208408709       29.3851634047
  O        14.2100011442        1.5193502162       26.7142930846
  H        13.5529287104        1.9376431176       26.0710022604
  H        13.7360034103        1.8017645221       27.5629274397
  O         9.4282757795       -8.1992300549       32.2416484481
  H        10.3461372045       -7.8529027958       32.3477744108
  H         8.7975697538       -7.5467211811       31.8447369740
  O        11.1386341513       -1.8557641967       29.9428735574
  H        12.0015300181       -1.4969916168       30.2097460042
  H        11.0048702749       -2.7174929822       30.3264403205
  O        10.9886202725       -6.9933567868       37.5155074534
  H        11.6707119552       -6.3319208924       37.3269103755
  H        10.1577127757       -6.5739891934       37.1777932030
  O        15.7148684868       -7.9639561881       29.4536605182
  H        16.5022008844       -7.3292419259       29.5953298237
  H        15.5130404580       -7.8033594256       28.4958032774
  O        -3.9101385590       -0.0495045828       20.8283118399
  H        -4.4035486020       -0.4620089340       21.6053125646
  H        -2.9226510303       -0.3228613783       20.8367870707
  O        10.2901171109        1.1697253924       36.7850682879
  H        10.9769193387        1.7964056722       37.1358776862
  H         9.4968476339        1.7202741684       36.3654928943
  O         9.0202013892       -0.1391087440       42.5302130897
  H         9.8017238027       -0.7756805394       42.5564133025
  H         8.6422652479       -0.2012186300       43.4646148312
  O         6.6914663180        3.4956791330       27.1423321584
  H         6.0358288498        3.0546453180       26.6123559065
  H         7.0587745509        2.9209532908       27.8957118358
  O        13.2815175521        1.9119683557       29.3151109085
  H        13.2945127724        0.9561799182       29.5237046932
  H        12.6120418972        2.3408023291       29.8519720536
  O        19.2412666655       -1.1286784816       28.6659863219
  H        20.0550214572       -0.7917987524       29.0813201311
  H        19.3296211195       -1.3618705015       27.7366928304
  O        10.7552977998        2.0977360113       30.9820804096
  H        10.2616577825        2.9120029449       31.2151265528
  H         9.9904630931        1.4845638800       30.6724825229
  O        12.5378207136       -4.9453018128       36.5118001503
  H        13.5441214564       -4.9193774910       36.5984381186
  H        12.2530578204       -4.1573136072       36.9324999188
  O         3.6974241472        2.2036980376       31.2439166936
  H         3.9574305725        2.7305008054       32.0180925839
  H         3.3327880796        2.8632716325       30.6301569697
  O        -1.0322633653       -0.5959266170       33.1297791431
  H        -0.7676814554        0.2247596735       32.6467247555
  H        -0.7107594457       -0.5364509818       34.0653697830
  O        16.0292757154       -4.3951834637       27.0927247276
  H        15.5909449021       -4.1975513055       27.9382344293
  H        16.7226854613       -3.7127620522       27.0750227791
  O         6.9776504000       -4.2722804338       32.4245002775
  H         6.6382031535       -3.3327954571       32.4321714038
  H         7.7369407782       -4.4475804233       33.0381362800
  O         1.1157891899       -0.5099497303       30.3078793453
  H         1.2213093771       -0.1859987761       31.2207597073
  H         1.9844917765       -0.8985990485       29.9496026998
  O         6.3977293391        0.9502467312       37.1979259609
  H         6.8640175514        0.2726441249       37.7773568313
  H         5.6064388662        1.2540661968       37.7102412928
  O         6.5363719653        3.3189283717       30.0411731473
  H         6.8228515154        2.6481496974       30.7955975711
  H         5.6119425149        3.1357256892       29.9758613274
  O         6.5594297911       -5.8199110174       37.6014401100
  H         5.9522555021       -5.0921943513       37.3404422156
  H         5.9865784075       -6.2975396126       38.2639316864
  O         2.8999376569       -5.4389150491       37.0464589307
  H         3.3508139598       -5.1450661233       37.8189122015
  H         3.4626356302       -6.0287643628       36.4791912136
  O        -0.3828287226       -7.3344165416       32.4122205142
  H        -0.5536932921       -6.4813203920       32.8977012350
  H         0.1981389539       -7.1984434256       31.6335665117
  O         7.3436998139        2.7233548851       33.4386869962
  H         7.5537109933        1.8261674840       33.1283241346
  H         8.0237394864        3.3437935009       33.1233281255
  O         9.3149779698       -3.0943730556       36.5972184739
  H         8.8673223050       -3.7968101815       36.1144243464
  H         8.6514529645       -2.4159188080       36.3798309953
  O        17.8895135938       -5.8796441358       21.7342306194
  H        18.3888129360       -5.3515772704       21.0586297645
  H        18.5885360228       -6.2664507798       22.2850812857
  O         5.1988717890       -3.7604248242       23.6770614231
  H         4.4628009158       -3.1331216362       24.0087056882
  H         4.8187493558       -4.2916276481       22.9538172656
  O         4.6414631827       -6.9545998071       26.9953605703
  H         5.2530984433       -7.6828531502       27.1044390031
  H         4.7697458833       -6.5231023672       27.8908568355
  N        10.0035537233       -4.7101444774       30.6642258928
  H         9.0063263615       -4.4691148831       30.4498044996
  H        10.3551915922       -5.4203959844       30.0337324742
  H        10.0998922203       -5.0464163793       31.6305038557
