     193
 CELL 12.4294 12.4294 12.4294 90.0 90.0 90.0 i =    45320, time =    22660.000, E =     -1096.5150245013
  O        -0.8336408095        0.5377707275       21.1285521835
  H        -0.4341813272        0.0622236215       20.3394444436
  H        -1.7642413132        0.8981608191       21.0545502505
  O         2.4235469042       -8.0441621348       16.5989163824
  H         2.6512109706       -8.8327605067       17.1725823356
  H         2.1561846827       -7.3633362876       17.2969046150
  O         1.4179293889       -6.0231334594       18.6394414221
  H         1.6119907941       -6.3845023813       19.5189267138
  H         0.3971803557       -6.0229456304       18.6985718764
  O         0.7835128290       -0.8526487944       19.2375517575
  H         1.4842585874       -0.1426437456       19.4345709730
  H         0.5532067367       -0.4719561214       18.3759073408
  O        -9.4048916570       -3.9601986842       15.4326262990
  H       -10.2351058314       -3.6842200974       15.8361403971
  H        -9.4561452911       -3.4111480808       14.6303521843
  O         6.6902732806       -5.9766889478       23.6936231993
  H         6.3886785612       -5.5562803446       22.8514879238
  H         5.8270016018       -6.3004308764       23.9231681796
  O        -1.3268338056       -1.1422852552       10.9670026384
  H        -1.8700783684       -0.4868602879       11.5597367227
  H        -1.2066519246       -0.6351870295       10.0903189646
  O         5.8795030625        3.9111548657       21.2708334819
  H         5.1466544319        4.6160774003       21.2322542921
  H         6.2914514906        3.7903477652       20.3860901014
  O        -2.9370719035       -7.5759833188        8.5918734935
  H        -2.5351197967       -7.4509919250        9.5119300546
  H        -3.5993603930       -6.8565541623        8.5292080254
  O         1.5034649950       -1.1316321503       11.0885074392
  H         0.4916809734       -0.9228224792       11.2060634230
  H         1.5213943774       -1.6891529929       10.2135448768
  O         2.4297966723       -4.8484883168       10.8444339082
  H         2.9062898946       -4.1785730169       11.4350783730
  H         1.5156882138       -4.9436390695       11.1375596785
  O        -7.6061866855        5.0147696515       12.5594932353
  H        -6.8034272607        4.6284225904       12.8769314343
  H        -7.9159906896        5.4034523215       13.4074516429
  O        -7.7775877554       -2.0690533091       19.3677740436
  H        -7.8618462088       -1.2800939649       20.0595165067
  H        -8.6645952011       -2.5299100033       19.1555426179
  O        -0.6849758038       -3.2981470300       14.0429475393
  H        -0.1090327427       -2.6531777439       13.5118839246
  H        -1.6287635649       -3.0585039074       13.9090518804
  O        -0.5181892589        1.0761405742       14.7309716059
  H        -1.2918367988        1.5553098360       14.9645731082
  H        -0.1543128813        1.5749156225       13.9527799250
  O        10.6636846435        0.5137620806       17.2932390908
  H        10.2055694955        0.8948727354       16.5732227133
  H        10.5341873579       -0.4735608676       17.3953359466
  O         5.7432150030       -4.1377622905        8.6077780696
  H         6.5226854473       -4.4034539774        8.0863088997
  H         5.2446899548       -3.4948656962        8.0577088663
  O         2.4908121749        1.3012989331       20.0064461184
  H         3.4067587084        1.3207848295       20.4070783090
  H         1.8668238197        1.9157343967       20.5822168670
  O         1.1428805381       -0.3762669190       16.3339207321
  H         0.5041797233        0.2161698898       15.8504387651
  H         2.0457913126       -0.1679786283       15.9969671851
  O        -1.1841618011       -6.0417912906       18.6825883727
  H        -1.2495257015       -5.5010805333       19.4949759125
  H        -1.4301990751       -6.9430386120       18.9938902356
  O         6.4181010374        3.0620072385        6.0141666239
  H         7.0624514733        2.3611399199        5.8099579625
  H         6.5126890142        3.7771871795        5.3802620549
  O        -0.7855467836        3.4300811669       19.1372746939
  H        -0.3750289148        2.9942498762       18.3765011248
  H        -0.2749890584        3.2555237969       19.9006771427
  O         7.5961483120       -0.5005932681       21.3578099717
  H         8.0866682360        0.1598645998       21.8884378480
  H         7.5517452592       -1.3314461484       21.8795462519
  O        -1.9192492193       -7.3789679629       11.2547023595
  H        -1.6441419344       -6.5662766648       11.6089229608
  H        -1.1342704988       -7.9940172159       11.2738822128
  O        -2.9400562149        2.4178930418       15.4880751310
  H        -3.1243315607        3.2088348875       16.1199274058
  H        -3.7076229282        2.3860195069       14.9033391566
  O         7.6087362078       -5.4959960803        7.3977615796
  H         6.8462589531       -6.1247943208        7.1689257261
  H         8.0819092917       -5.2997277848        6.5536834785
  O         4.9422957532      -12.0980826683       21.0680530429
  H         4.5044777268      -11.9153411598       21.9117029069
  H         5.9284371663      -11.9972094936       21.2445993107
  O         3.1672594249       -2.7988958593       12.8131583707
  H         2.7137551365       -2.0409141899       12.4147118320
  H         4.1526426000       -2.6279011634       12.5235771463
  O        -2.9924121256       -6.5493595079       14.8757406718
  H        -3.2752018010       -5.9382595755       15.6348313666
  H        -2.9604226221       -5.8899867274       14.0973984256
  O        -3.2383627388      -10.4837142798       21.6002530991
  H        -3.8052973777      -10.0443494587       22.3042597099
  H        -3.2002255613       -9.7493895244       20.9437837675
  O        -4.0819751390       -2.1056896465       16.3230990178
  H        -4.8184420248       -1.5032914608       16.6498977565
  H        -3.3065707243       -2.0322493487       16.9333509004
  O        -4.9937848780       -2.7592690047       22.8504251823
  H        -5.6439334490       -3.2022492589       22.1720249161
  H        -4.0830574450       -3.2192204891       22.7656175550
  O         2.7602600956       -8.9870756781       11.1398756335
  H         3.4504651066       -8.3468557406       11.3772442486
  H         3.2028147497       -9.8867769807       10.9069784574
  O        -2.7197678145       -0.0958510933       13.0488728716
  H        -3.4987443514        0.4166869186       12.8878651472
  H        -2.0644078200        0.2956833119       13.6670640522
  O         9.0174643011       -5.1428475554       12.6592291668
  H         8.2151145758       -5.5067496375       12.1795937686
  H         8.7784737246       -4.1763258991       12.8282581655
  O         7.5516519795        3.5494304173       10.8550294164
  H         6.9912684709        3.8336967664       10.0780196083
  H         8.2175696269        4.2306372358       11.1022912157
  O         4.9207389629       -4.3747869192       17.3486373206
  H         5.2303313184       -3.6936828567       17.9837911417
  H         4.2307111107       -4.0023813393       16.6932571645
  O         5.9399724286       -2.3938153421       12.7292852693
  H         6.4699323764       -2.5312679731       11.8967957774
  H         6.2968226522       -3.1054068407       13.3575942075
  O         1.3288565740       -2.8551508577       21.6373621320
  H         1.8501405575       -2.7635115336       20.7579296042
  H         1.8559357495       -3.5890116967       22.1350564156
  O         7.1221345549       -8.5160655839       14.2209509784
  H         7.9929772684       -8.0957088552       14.0741374847
  H         7.1597368473       -9.3567648530       13.6948748732
  O        -6.3649626569       -0.5178772793        4.9251406114
  H        -6.7752394207       -0.9964582434        5.7103027409
  H        -5.9282502427        0.2804264920        5.2958765297
  O         3.9614463072        5.9642686781       21.3802922511
  H         4.4693731315        6.7982821470       21.3669832007
  H         3.2535748538        6.0422350037       22.0916713771
  O         3.4044003326        0.7955334879       23.3452197327
  H         2.6236926821        0.1923673702       23.4374427265
  H         3.9945724688        0.5668062733       24.0587811900
  O         1.3314085373        5.7284584230       13.6113398246
  H         2.2209812658        5.7687737614       13.8912689707
  H         0.7277959919        5.3539761065       14.3253832204
  O         7.4491822628        1.6016972515       12.7858134247
  H         6.5819768918        1.2008237017       12.6036143114
  H         7.4530539913        2.2444029978       12.0380290760
  O        12.7811756617        2.8944782483       12.7046185473
  H        12.8643548665        3.7322746482       13.1668824849
  H        13.6141710911        2.9836390478       12.2035359054
  O         5.1547194205        0.2108247045       13.0037322642
  H         5.6209366058       -0.7123542842       13.1557206407
  H         4.7236047583        0.4609335383       13.8519940398
  O         8.1852923888        1.0345911401       18.6096279827
  H         8.1982097246        0.3711564496       19.3071139144
  H         8.9151201111        0.8645319490       17.9156798779
  O        -0.5094655204        4.4713960729       15.1268139958
  H        -0.2060211969        4.0518952253       15.9370371277
  H        -1.3946430254        4.9834914271       15.2436143864
  O        -8.4522722819        0.5191853041       15.5805999564
  H        -7.9267138661       -0.1553614369       16.1309054848
  H        -8.4429111974        1.2910162147       16.1585917057
  O        10.0733954599       -3.6987899818       10.2817371064
  H         9.9262148375       -4.3349104311       11.0007311356
  H        10.3723456364       -2.7840394533       10.6748151253
  O         0.5422170330       -2.8864356130       16.4675102459
  H         0.7757127244       -1.8744442755       16.3158854145
  H         0.1807940195       -3.2530657849       15.5973970352
  O        -3.1908155200       -2.5947377446       13.6267189065
  H        -2.9998911788       -1.6938753214       13.2947754196
  H        -3.6876626026       -2.4012894783       14.4547413308
  O         0.9030865352        3.1803650194       21.4404678005
  H         1.5327954769        3.3416295322       22.1413861771
  H         0.2000273484        2.6356692967       21.8538171097
  O         4.2751721248        5.7104614421       15.1545481389
  H         4.0976009222        6.6310249507       15.3415735085
  H         3.6927048711        5.1579822158       15.6428743330
  O        -0.8538307189       -3.9080804509       20.3593382753
  H        -0.0455746137       -3.5449399987       20.8518318255
  H        -1.5425052132       -3.6920786506       21.0696413766
  O        -1.8429883872       -2.3526957212       17.8981169866
  H        -1.0909090078       -2.5668525820       17.2677839515
  H        -1.6268997973       -2.6868176062       18.8322670749
  O        -5.8984807352       -7.2172507033       16.9205161553
  H        -6.7223013918       -6.6615804923       17.0088923638
  H        -5.8545773015       -7.3718975791       15.9760590560
  O         3.9300275363        2.2104838127       17.8121393076
  H         3.5488002004        1.6252651173       18.5057474267
  H         4.8104884453        2.6390721348       18.1925146376
  O         2.4402589111       -3.3643622513       18.9169792522
  H         1.7101978190       -2.9361811823       18.4253100260
  H         2.1806896786       -4.3175350504       18.8783302294
  O         9.1056401449       -8.1220186859        5.0747546704
  H         8.5544454682       -7.3800222296        5.3880158131
  H         9.4762862232       -8.5383031993        5.8556208907
  O        -3.2798635179       -5.0754148058        5.2355516930
  H        -3.2441106817       -4.1140661886        5.0958716782
  H        -2.4361993215       -5.3919223120        5.5349281181
  O         0.0257625363       -5.1733555535       11.8819517256
  H         0.4433516359       -5.8242048823       12.5655486601
  H        -0.4381304937       -4.5451529453       12.4952557003
  N         6.6864378002       -4.3317115185       14.7853969337
  H         6.0922170241       -4.2103203351       15.6226550465
  H         6.4685659215       -5.1928746049       14.3819910930
  H         7.6311384645       -4.4822473722       15.2439655673
