     193
 CELL 12.4294 12.4294 12.4294 90.0 90.0 90.0 i =    38920, time =    19460.000, E =     -1096.5517656440
  O        -1.9859174876        0.1078254135       18.3104312778
  H        -1.5649313421       -0.3466535422       17.5397984606
  H        -2.9361430464        0.2771647217       18.0689407129
  O         1.1840110365       -8.2153827639       13.0567317519
  H         1.9606941044       -8.8839199312       13.2931958801
  H         1.3446440266       -7.5445299813       13.8510100910
  O         0.7835415857       -6.1755508333       14.9114082913
  H         1.0234834087       -6.4352014330       15.8108936867
  H        -0.1953361927       -6.0249225797       14.9936678802
  O        -0.7595680789        0.0282859679       15.7683212713
  H         0.1423390371        0.3754852417       15.5324075727
  H        -1.0066525441       -0.6426756650       15.0910240546
  O       -10.6902457213       -4.1357556552       11.0888297942
  H       -11.5444028165       -3.6130622467       11.1392187686
  H       -10.1660579738       -3.7860932420       10.3326290340
  O         5.2230410327       -5.6044552327       19.3960794974
  H         5.0799436849       -5.1427413550       18.5304662726
  H         4.3979762198       -6.1179087720       19.5611945220
  O        -2.5137648017       -1.4909005669        8.1093998125
  H        -3.1571165619       -1.1473060483        8.7806182730
  H        -2.3397360020       -0.7824268548        7.3838677797
  O         5.3153974733        5.0313119944       16.7445098546
  H         4.4048812636        5.3123725695       17.0278537746
  H         5.1957959790        4.2951253403       16.0577978775
  O        -3.1202533097       -7.9819253025        3.7642310172
  H        -2.7561331415       -8.9040336732        3.5904644449
  H        -3.3349680267       -7.8972597582        4.7665668657
  O         0.7956288208       -1.2541534304        7.4634606215
  H        -0.0006555558       -1.4027662952        8.0270768685
  H         0.7206835656       -1.9055632671        6.7055243681
  O         1.3449847958       -4.7948445932        6.8130079105
  H         1.7783586795       -4.3703227653        7.6375397502
  H         0.5858603297       -5.3271901947        7.1228613230
  O        -9.0928509202        5.1805836303        8.8163796507
  H        -8.6034202067        4.3679145537        8.9250033540
  H        -9.6792980111        5.2035946711        9.5574824010
  O        -9.8974117451       -2.1835680603       16.2247871455
  H        -9.6851778977       -1.4408589442       16.8466081228
  H       -10.2994935561       -1.6984320140       15.4568781009
  O        -1.4923578559       -3.7939677828        9.6371127709
  H        -1.8090320004       -3.2159810978        8.8899438448
  H        -2.2818971279       -4.3166040446        9.9200947495
  O        -1.0164291371        1.2549599593       10.1722879655
  H        -0.9889592689        1.8840857852       10.8926670820
  H        -0.8701442017        1.7191720265        9.2741767051
  O         8.2804061698        0.5624785251       13.5252428152
  H         8.1112226171        0.7957897316       12.5477367871
  H         8.8405764364       -0.2549158738       13.5478843423
  O         4.3331355472       -4.1461894621        4.2874658833
  H         4.9461563973       -4.2366358197        3.5373389583
  H         3.6241277333       -3.4880525059        3.9493869745
  O         1.9066002247        1.4501459268       15.8602333149
  H         2.3577161678        0.8688894017       16.5490332993
  H         1.2276217543        2.0617903090       16.2723059808
  O         1.3702299411       -0.5671839818       10.3233725545
  H         1.0413644084        0.2714144593       10.0449358375
  H         2.1558111473       -0.4089448327       10.8973851720
  O        -1.8690593489       -5.6041201455       15.1360744939
  H        -1.9679946842       -4.7825676707       15.7711246965
  H        -2.2295927054       -6.4347938822       15.6029258272
  O         5.0634862029        3.2866770487        1.9980776253
  H         6.0171086412        3.0452750494        1.9352971452
  H         5.0165478944        4.2269989896        1.4934675318
  O        -2.6149824306        2.0642436282       14.9646781841
  H        -3.3078711520        1.6554964063       14.3286746750
  H        -1.8250079213        1.4087837181       15.1860070585
  O         5.5271019869       -0.2693991498       16.7925097188
  H         6.2906846604        0.2896966980       17.0016127538
  H         5.6864625882       -1.1423868274       17.2864899081
  O        -3.4875951964       -7.7524764707        6.5880464975
  H        -3.7729409643       -6.8652218497        6.9715608913
  H        -2.9211710140       -8.1228140702        7.2764317611
  O        -5.4019772925        1.7666599010       11.3007009594
  H        -5.6911016420        2.7080496327       11.3292108816
  H        -6.1819247374        1.4075500401       10.7847814404
  O         6.3602049155       -5.2303167286        2.7146582624
  H         6.2596927134       -5.9020500469        3.4545855671
  H         5.8864978123       -5.5684439174        1.9616725002
  O         3.0331706791      -12.5379444380       17.8683348240
  H         2.8840879493      -12.1741940616       18.8552360239
  H         3.9595200887      -12.3452245717       17.5908251590
  O         2.7775367084       -3.0046101958        8.7792234490
  H         2.1621580863       -2.3085280109        8.5958857943
  H         3.6655456733       -2.5504964776        8.6394693972
  O        -3.5262534465       -5.6471003597       10.2854777790
  H        -3.7345192725       -5.4172300408       11.2568307233
  H        -2.7827859436       -6.3254337349       10.4337738521
  O        -4.3281554378      -11.2302573965       17.2217545300
  H        -4.8424367342      -10.4433360857       17.5319846052
  H        -3.7318166904      -10.9448520046       16.5114825517
  O        -4.6396490465       -2.8153624303       14.4191906055
  H        -4.1726418483       -2.9851216037       15.2695574804
  H        -5.4913075044       -3.3388336836       14.2944156813
  O        -6.6926352301       -2.4755851015       18.2541706595
  H        -7.2007457219       -3.2074044315       17.7380760178
  H        -5.8200891307       -2.9097711685       18.3966811294
  O         1.6137623867       -8.9941005759        7.1853245463
  H         1.9344926734       -8.7631436242        8.0833580521
  H         1.7672582272       -9.9711446434        7.3252408748
  O        -3.2761496445       -0.0022841391       10.4886523215
  H        -3.8152607155        0.7361178753       10.1686609320
  H        -2.3943856687        0.4086255932       10.5471843090
  O         7.6885728573       -5.3898497845        7.7608645925
  H         6.7370191640       -5.5999900714        7.7425215461
  H         8.0108545873       -5.3754186344        8.6975603978
  O         6.5245519957        3.3598561069        6.1163067708
  H         5.9718561986        4.0181667002        5.5986078422
  H         7.3269990306        3.8887966117        6.3292349600
  O         2.7841933979       -4.6193538656       13.6618313486
  H         2.0468765273       -4.8790803819       14.2663212446
  H         2.3722400618       -4.4812894625       12.7783924871
  O         5.2320376633       -1.9244965160        8.6654363365
  H         5.3469064656       -2.1620591182        7.7062423980
  H         5.8043601042       -2.5395232902        9.2140591010
  O         0.3789814836       -2.7616304012       17.7933644865
  H         1.0695470257       -2.6285031349       17.1001794017
  H         0.5888250144       -3.5641390581       18.2995746771
  O         6.3614389533       -7.6165361247       10.9244858791
  H         7.1497005743       -7.0746757417       10.5875499408
  H         6.1322693356       -8.1572207209       10.1221162754
  O        -7.4575447992       -3.0194820129        1.5010827457
  H        -8.4113264037       -3.2748631946        1.4089051701
  H        -7.4650041926       -2.0670697180        1.4370984756
  O         2.3030853647        5.5624810624       17.5102466001
  H         2.1444748107        6.3217471784       18.1096164839
  H         2.0025878446        4.8062463847       18.0338334519
  O         2.3088937334        0.8741522230       20.3907647783
  H         1.7689031593        0.0265159326       20.4604280287
  H         3.1312062731        0.9583061951       20.8912495561
  O        -1.4835046948        4.8407732263       10.6368793459
  H        -0.6115694170        5.2408994978       10.7467140466
  H        -1.5948851550        4.3976900799       11.5192895028
  O         5.5930326434        3.2046394569        8.6747963686
  H         5.3071581248        2.2338751336        8.6380138129
  H         6.0357015626        3.3909395843        7.7967066325
  O        10.9453092176        3.2248187887        8.3957584806
  H        10.9217504002        3.8911961457        9.1358237339
  H        11.6152531297        3.4754343332        7.7428728857
  O         4.6519934297        0.6295861858        9.6919749662
  H         5.0076329377       -0.2654483343        9.4399314922
  H         4.2108640982        0.6014953063       10.5853902781
  O         5.5360449783       -0.2987048274       13.9229771958
  H         5.4095822682       -0.2105544363       14.9140603102
  H         6.4685137097       -0.2681761689       13.6954063633
  O        -1.3543796479        3.3321668215       12.7303893842
  H        -0.4998832908        3.7359372864       13.0547398977
  H        -1.9449385958        3.1573924221       13.4832633066
  O        -8.8601085221       -0.0162229844       12.2654487144
  H        -8.0527245024       -0.2978001706       12.8264639851
  H        -8.9412074639        0.9467239519       12.6249121708
  O         8.5914716279       -3.1964774595        6.0941801151
  H         8.2914490871       -4.0419551114        6.6175808935
  H         8.8586943071       -2.6288343008        6.8619697970
  O        -0.3730278607       -2.5563718446       11.7762011532
  H         0.0061813753       -1.8067574542       11.3463755136
  H        -0.8858872652       -3.0254370231       11.0928611403
  O        -3.7910333758       -3.0788232600       11.6295330155
  H        -3.7591659748       -2.1263943448       11.4951391446
  H        -3.9273201071       -3.0632705156       12.5898289043
  O        -0.5264363039        2.6367087541       17.3228702377
  H        -0.0002770600        2.8537259817       18.0829424668
  H        -1.0342674881        1.8387628336       17.5518189467
  O         1.1395531228        5.8918627498       10.6725406287
  H         1.4520179109        6.8718495348       10.8489125708
  H         1.4432272699        5.3230372142       11.4600897524
  O        -2.0898825338       -3.1580653051       16.4833299599
  H        -1.1775582580       -2.9009632932       16.8286553759
  H        -2.7401631406       -3.2152766619       17.1970933279
  O        -1.6844273440       -1.6073129620       13.8681181576
  H        -1.3261254975       -2.0954739630       13.0987453100
  H        -2.1258523989       -2.2178440854       14.4475231805
  O        -7.6132259682       -6.5202384321       13.2167334468
  H        -8.4034103275       -5.9317233205       13.3840859415
  H        -7.3797466258       -6.6547328106       12.2555332423
  O         3.0389462816        2.2301595526       13.4972161902
  H         2.6117504991        1.8434146653       14.3081557634
  H         3.9468932439        2.6016357744       13.8227036222
  O         1.7850314077       -1.3165690879       13.9243294181
  H         2.4111372387       -0.8745718445       13.3457400585
  H         1.1626859420       -1.7743547000       13.3311861035
  O         7.8309848256       -8.5818883113        1.5396120605
  H         7.7898919419       -7.8395213456        0.8889567095
  H         8.3932146160       -8.3558099364        2.3404409137
  O        -3.8448963015       -5.9206758586        0.6027982952
  H        -4.3403989119       -5.5837900612        1.3779586361
  H        -2.8793234852       -5.9043998233        0.9359084080
  O        -0.5898020688       -5.7360513066        8.1960397674
  H        -0.0285437713       -6.2888089410        8.8168380861
  H        -0.9092680354       -4.9287093271        8.7847597771
  N         6.1396397492       -3.6860994278       10.4192244778
  H         5.8326175118       -3.6025717239       11.4006169391
  H         5.7904597897       -4.5858349985       10.1956304215
  H         7.1660588136       -3.8171987816       10.5678464200
