     193
 CELL 12.4294 12.4294 12.4294 90.0 90.0 90.0 i =    96920, time =    48460.000, E =     -1096.5297493737
  O         7.6690727631       -1.1805540052       49.3917194777
  H         7.1287017913       -0.8038847660       48.6407523864
  H         7.8138746667       -0.3829005212       49.8837304494
  O        10.7704599585       -7.2241618433       45.1624813317
  H        10.9085137265       -7.7839211533       45.9753085493
  H        10.8915842906       -6.2295990999       45.4346077152
  O        11.0346813875       -1.4124420508       49.8172662337
  H        11.0649061902       -2.0776269862       49.0781940286
  H        11.6696662507       -1.6018724288       50.5188745775
  O         8.8702279435        1.5726594333       47.3161477927
  H         7.9926464787        1.1704518255       47.0585897609
  H         8.6258711857        2.4965673518       47.5510294296
  O        -2.2821950121       -4.6176953621       46.0343578922
  H        -1.7351301150       -3.8928909987       46.4699921371
  H        -2.8059607105       -5.1140021746       46.8002983519
  O        17.1874925534       -1.5615201947       56.5565630438
  H        17.1795090138       -0.8703581636       55.8318604277
  H        17.5241176850       -2.4377283642       56.2112696921
  O         7.2338761028        0.1650064966       39.7023702108
  H         8.1378770599        0.1237618667       40.1045475653
  H         6.7897371627       -0.7320703454       39.9185675039
  O        14.3493740580        4.4347242831       50.4170291655
  H        14.2666805319        5.1658410146       51.0876376400
  H        14.4229175548        4.8973836783       49.5365358979
  O         6.4406318307       -7.2656457157       37.6554266773
  H         5.9608998919       -6.4392802186       37.3797437391
  H         5.7068668533       -7.6246867888       38.2299394595
  O        12.2206424823       -1.2875867841       39.8371764011
  H        12.8459057068       -0.7135430926       40.3512520864
  H        12.0704328839       -2.1803431379       40.2990101759
  O        11.7646793691       -3.9438342398       40.5914825939
  H        10.7915807154       -4.2519043922       40.6272534153
  H        12.2973334754       -4.4935805646       41.2043327871
  O         3.7078658798        5.8228241267       43.7575414625
  H         4.1723763226        6.6278433556       43.4088193931
  H         3.5855680149        5.1736734388       42.9811111434
  O         1.1764092798        0.0178914536       54.1978047544
  H         2.0626489199        0.4106185082       54.3687938382
  H         1.2072598960       -0.7745967110       54.8412981609
  O         7.8181393100       -1.8378111613       42.7792200816
  H         8.4116437307       -1.6935774388       42.0295641338
  H         7.3550325008       -1.0085547798       42.9081168926
  O         8.6765528847        4.7479598060       43.4349785753
  H         9.5760543750        4.7125752798       43.9138185826
  H         8.7986096826        4.2111556375       42.6234502562
  O        18.9080868137        0.0990198804       46.6391942542
  H        18.0141090457        0.3885772954       47.1300601495
  H        18.6871729502       -0.7078470718       46.0973544595
  O        17.5801750182       -3.5032816020       42.2356518011
  H        16.6970797102       -3.6909095141       41.9177582659
  H        18.1000633905       -4.3307414936       42.0827668841
  O        10.1332016205        4.6835681088       48.9941879019
  H        10.7821955498        4.1885763288       48.4872436158
  H         9.5290284447        4.0099021196       49.4499174261
  O         7.9526213944        1.9367203971       43.8715506849
  H         8.0113159631        2.9469231032       43.8737519956
  H         7.6331125328        1.7185550034       44.7605832027
  O        11.1758683002       -6.6634376221       51.3029617944
  H        10.3678706313       -6.7641585024       51.8144683004
  H        10.9433147875       -7.2389437648       50.5459018071
  O        14.0084041754        4.8573477452       35.2457794303
  H        14.8026494557        4.3052740500       34.9879499356
  H        13.9763325423        5.5635319248       34.5367305400
  O         6.7369112263        7.5340314433       46.7386505371
  H         7.1597595347        8.0800492935       46.0318686760
  H         6.4889906822        6.6453309969       46.2868076878
  O        14.7953120003        0.3411274914       49.8327647159
  H        14.2989262240        1.0725243072       50.2906686080
  H        15.0863847150       -0.2704424315       50.5442092697
  O         7.0260350734       -8.8374911583       35.3570910037
  H         6.7414161776       -8.1138343477       34.7407760520
  H         6.8587506818       -8.4258947713       36.2359781832
  O         4.0201382737        3.3042433709       47.0611358317
  H         4.7381580151        3.6013062964       46.5421503099
  H         4.3404840625        2.5783838010       47.7120995545
  O        13.9130964015       -3.1186177027       34.6146921944
  H        14.4787547797       -3.1897410866       35.4368945019
  H        14.3671630291       -2.3214308135       34.2455158153
  O        11.9269423632      -10.2187205338       53.2455242671
  H        12.0704028018      -10.3690798983       52.2373692070
  H        12.2698286672      -11.0738158968       53.6430424568
  O        15.1591437184       -3.4180535772       41.1496189530
  H        14.7938035360       -4.2376849032       40.7865202802
  H        14.4467940890       -3.0406945614       41.7038906858
  O         7.8552982405       -3.8172265434       44.5509903606
  H         8.7270548088       -4.0274408608       44.9608728813
  H         7.8361275553       -2.9735692586       44.0392293072
  O         4.8170709738      -11.1532665818       48.5109384194
  H         3.9768158581      -11.5034524600       48.9104914474
  H         5.3198446870      -10.8818058745       49.3073821093
  O         2.6450903755       -0.9460422042       46.0551120250
  H         2.5796477651        0.0073322592       45.7396905954
  H         3.4159290947       -1.2489568185       45.5203834099
  O         3.5737418533       -1.7570210067       51.3875320914
  H         4.5164466795       -2.0554150708       51.7096323005
  H         2.9923804477       -2.0943010007       52.0871061685
  O        12.7413899530       -7.6491069109       40.8370908074
  H        12.3346250433       -7.4912596558       39.9753284317
  H        12.6453219857       -8.6579705576       40.9627053495
  O         6.4097785712        1.9303104894       37.8584508584
  H         6.6742238959        1.1957543931       38.4569922991
  H         5.9101287990        2.6238451075       38.3738716520
  O        18.4470026099        0.6369532314       42.1993027806
  H        18.7270607167        0.5751526842       41.2774041226
  H        19.1303890553        1.2158175418       42.5839729580
  O        17.0199494162        3.5566121443       38.8275155621
  H        16.2322917876        3.7505396106       38.2736502349
  H        16.7859206765        3.8044952646       39.7319305976
  O        13.5779384571       -5.5038712669       42.2653891931
  H        13.3045314146       -5.4486364057       43.2127545523
  H        13.4137883819       -6.4201982541       41.9767296568
  O        13.9797849653       -2.1757968864       43.3933366184
  H        14.4615546295       -2.3660847361       44.1984794759
  H        12.9764291370       -2.3839894988       43.6050545330
  O        14.1072881017       -5.1949927380       51.1960530162
  H        14.4138861909       -4.7681072455       50.3645190698
  H        13.2285248517       -5.0821163989       51.4439507270
  O        18.9460628552       -5.5380941331       42.7902480566
  H        19.4542430846       -4.9613400256       43.5043913992
  H        19.5626444398       -6.2004170338       42.4319674747
  O        -1.7024059799        0.1130101679       33.3895412783
  H        -2.2814762637        0.7925576386       33.8601869160
  H        -0.8068723176        0.2184536134       33.7525502008
  O        12.7626024967        2.0819213480       50.7999248447
  H        13.1454858542        2.9317313688       50.4434636813
  H        12.1544101135        1.8697984932       50.0794402818
  O        10.2527455039        1.1110583559       55.5321328884
  H        10.5743885606        0.4079747247       56.1902481890
  H         9.3477693553        1.3767949792       55.8946897224
  O         8.9089608761        2.9174191417       41.0763907608
  H         8.7030920046        2.5881713979       40.1477268978
  H         9.8483757829        2.8016742541       41.1895270628
  O        16.0255477527        4.3568342581       41.4356512451
  H        15.8210035679        3.5158943138       41.8951838264
  H        15.1160729981        4.5909973647       41.0830614938
  O        21.9899122859       -0.5794046899       40.9470021093
  H        22.5531807302        0.1129788193       41.4355624034
  H        22.5304977684       -0.9619428890       40.2567867746
  O        14.8884145627        1.8237337983       45.2542778354
  H        14.1335199043        2.3284263537       44.8686296490
  H        15.4414055549        2.3935931221       45.8766586119
  O        15.3855246308       -3.3236029173       49.2185448199
  H        16.2611320534       -3.8843570404       49.1950676476
  H        15.6119205647       -2.6163701794       49.8823213237
  O         6.1239571114        5.1954614402       45.3577919359
  H         6.8617651104        5.0188793333       44.7237865387
  H         5.3929898926        5.4521466025       44.7123408255
  O         0.3828578617        0.6253723787       47.6588842531
  H         1.3618817711        0.5683670777       47.6188387499
  H        -0.0208819394       -0.0540059209       48.2886205053
  O        18.4654920720       -2.2639692775       40.0394937674
  H        18.4502054317       -2.6023708716       40.9774365854
  H        18.9998520116       -2.9100794091       39.5264173123
  O        11.3302525837       -2.4713545150       47.0363232471
  H        11.1832824141       -1.7325767636       46.4571066853
  H        12.3193384819       -2.7532658985       47.0982826505
  O         3.2085416586        1.7183682272       42.5425091680
  H         3.0080019447        1.8854554467       43.5245526929
  H         4.0280623649        1.2643087013       42.4227960963
  O         8.9899458018        2.8751698989       50.8120893402
  H         9.6173547107        2.1393309725       50.7031356405
  H         8.2044775498        2.4728850194       50.3611004002
  O        12.8913280362        3.1026615830       43.9925672893
  H        12.3564100154        2.6454024704       43.3274448906
  H        12.4525450273        4.0081579957       44.2364067958
  O         8.9654955261       -4.2486854866       52.9657393412
  H         8.6916599659       -4.1754618909       52.0343388632
  H         8.7795076503       -5.2216480619       53.1092405600
  O         5.2249520708       -4.9322890299       49.1813604450
  H         5.9171459217       -4.5213610058       49.7926014402
  H         5.6894598360       -4.8882000755       48.3118766416
  O         1.5869741507       -5.9984902771       45.2893609052
  H         1.5723590873       -5.0655278730       45.6946838879
  H         2.4582405959       -6.0834626244       44.8014505849
  O        11.7822818020        3.2704505338       47.0527094319
  H        11.9460090641        2.3126137721       47.1530867095
  H        12.6195873930        3.7648810819       47.2389799289
  O        10.2807100216        0.9734309713       49.5966009277
  H        10.5016640743        0.0623704844       49.7558029133
  H         9.7717806426        1.0848205775       48.7443481160
  O        21.3159025031       -5.3898751090       36.0450850266
  H        20.5646384763       -5.4761196745       35.4255568463
  H        21.6630604656       -6.2383433959       36.2257238161
  O         7.7669920160       -3.9324884818       38.0128737920
  H         8.2490386173       -4.7282626778       37.5687094342
  H         7.8899404679       -3.1088621614       37.5276107848
  O         8.2342688601       -6.9485534188       40.1247060980
  H         8.5492071426       -7.7903158112       40.4379185618
  H         7.6685767699       -7.1572469329       39.3450546034
  N        11.3300901895       -2.6517821271       43.6785736785
  H        10.8899987844       -3.3868535108       44.1848702866
  H        10.7095244008       -1.8711756941       43.9895968787
  H        11.1585658982       -2.7145764364       42.6266578587
