     193
 CELL 12.4294 12.4294 12.4294 90.0 90.0 90.0 i =    49720, time =    24860.000, E =     -1096.4591892928
  O        -0.3026810110       -0.8678749214       22.9066156212
  H         0.6170963671       -0.5997598009       22.8218339996
  H        -0.7939322767        0.0361452282       23.0063889216
  O         1.6918185716       -7.5218680969       19.5382304697
  H         2.5822628432       -7.9043591196       19.6688751844
  H         1.3473942412       -7.0636411672       20.3704129651
  O         3.3944583437       -5.8114043226       22.3351005433
  H         3.6769703784       -6.5376576898       22.9483288194
  H         2.4276403763       -6.1065594933       22.3798217555
  O         2.6426277299       -0.4395394796       22.1598401394
  H         2.9781233661        0.4918022212       22.0826859821
  H         2.4218638859       -0.7359345586       21.2340028455
  O        -8.0977128890       -4.1438561667       18.0161224525
  H        -8.8904231154       -3.5355460011       17.9938458670
  H        -7.4624575114       -3.7895402338       17.3233942114
  O         7.7815054197       -6.7204796849       26.8446374329
  H         7.1572825156       -6.5252262949       26.0937487914
  H         7.3292305985       -7.1529134557       27.5893012597
  O        -0.5655496540       -1.3655126134       13.2127099575
  H        -0.8362009952       -0.5598757566       13.8246090073
  H        -0.3547374059       -1.0302308288       12.3583613641
  O         6.8537714903        3.6165457758       24.4850077938
  H         6.5060645918        4.5177961760       24.3081810383
  H         6.4985682908        3.0023369002       23.7871832541
  O        -3.4410561225       -7.1978780851       10.2626648158
  H        -2.6222800844       -7.0007425428       10.7258123502
  H        -4.0025449486       -7.7608224588       10.8230097235
  O         1.9953874053       -2.3326427619       14.1535054124
  H         1.1895436467       -1.8539478344       13.7528811113
  H         2.5354927603       -2.6353205615       13.2965472882
  O         3.8986605721       -5.2253089070       12.9154293999
  H         3.8716295481       -4.6969094690       13.7706717001
  H         3.0196224803       -5.6239181816       12.7465166082
  O        -6.7309893699        4.1263562703       16.3904757200
  H        -6.2533334460        3.5618826442       17.0915076476
  H        -7.5520635072        4.4179960494       16.9070378361
  O        -7.2415340035       -1.3965786715       22.2871666635
  H        -7.0134437347       -0.7739197388       23.0535678257
  H        -8.1997752221       -1.0322142429       22.0735407215
  O         0.6628160578       -4.2936117171       15.9363620051
  H         1.1275954365       -3.6457059518       15.3471748260
  H        -0.2862195051       -4.0878971183       15.7556103224
  O         0.3022545695        1.1031660455       16.5439722381
  H         0.3926458120        1.8678830546       17.2131106037
  H         0.7925744979        1.5222414590       15.7817456373
  O        12.0303278477        1.4943217714       20.0908670915
  H        11.2903986171        1.6248561337       19.5230032575
  H        12.1852208895        0.4829232674       20.0759969501
  O         6.7397687004       -3.9275339457       10.5375161335
  H         7.2873671577       -3.8704763606        9.7443820081
  H         5.8992056418       -3.4969922150       10.1692548362
  O         3.6441010237        1.9244434204       21.8955599517
  H         4.6674257605        1.7278108421       21.9150987856
  H         3.4818286149        2.5894265484       22.5877793305
  O         2.4786546316       -0.7130712274       17.2752821120
  H         1.8989076863        0.0654145009       17.0420085712
  H         3.1279289731       -0.4645305864       17.8714949209
  O         0.5245413889       -6.7301123222       21.8956036374
  H         0.1131305869       -5.8833888456       22.2033050046
  H         0.1993153370       -7.3966853495       22.5337034737
  O         6.4601225183        2.4293726289        9.4826195862
  H         6.9493919191        1.6150148691        9.2635414461
  H         7.0027914460        3.1534066480        9.0858530909
  O        -0.1049346467        2.6890368920       22.2461304876
  H        -0.2151589117        2.2256182115       21.3089816093
  H         0.8697076541        2.6056996737       22.5289690889
  O         8.4440936203        0.1599384363       25.2339052345
  H         8.9820350404        0.2501403421       24.4467546534
  H         8.4240121568       -0.8194143961       25.3956333229
  O        -1.0667279726       -7.3078379371       11.7343681032
  H        -0.5116671307       -6.8144676024       12.3936550513
  H        -1.6398085053       -7.8750343437       12.2676669729
  O        -3.0583665585        1.5079415329       18.8522673408
  H        -3.5701232877        2.2583907637       18.3236817273
  H        -3.4577339825        0.6675447664       18.4511843011
  O         8.7198174474       -4.0874529451        8.4586584984
  H         9.2657284691       -4.7763041943        8.0683431173
  H         8.9531863456       -3.3011481904        7.8841614409
  O         5.4156974083      -11.8706342598       24.4169835265
  H         4.9072337239      -12.1347714832       25.2080433684
  H         6.3276730863      -11.9166839952       24.5860123021
  O         4.6587004145       -3.7429271045       15.1901534485
  H         4.2845183451       -2.8515655226       15.0157664647
  H         5.6573164967       -3.5010426560       15.1300465020
  O        -2.1105880192       -6.8277841426       16.8380123684
  H        -1.6239489639       -6.3223112583       17.5097181004
  H        -2.1946388279       -6.2043332453       16.0378522737
  O        -1.8613403381      -10.9643033499       23.6139720562
  H        -2.0579792182      -10.5555066743       24.5113876673
  H        -1.1596145075      -10.3456836277       23.1626755889
  O        -3.1139373610       -1.8611274493       19.1552724074
  H        -4.0146093366       -1.6160394773       19.5117232054
  H        -2.4514463980       -1.4716801767       19.7542808767
  O        -4.3389933044       -2.8908403628       25.0354514749
  H        -5.1347699051       -3.0689999053       24.4372633270
  H        -3.5413120638       -3.3283898994       24.7060635005
  O         4.6156608912       -9.2808842903       14.0301229684
  H         4.9864946656       -8.9197075412       14.8720965133
  H         5.4177422721       -9.6728796763       13.5930953269
  O        -1.7705605572       -0.3455897442       15.3560633484
  H        -2.5856941856        0.2708456350       15.4753145702
  H        -1.1530684931       -0.0474545979       16.0755953155
  O         9.8176954763       -4.7474226960       14.9485704549
  H         8.9537501509       -5.1408079305       14.7577329952
  H         9.7550587432       -4.0167856950       15.5621271067
  O         9.3980856075        3.3475100467       13.1236439400
  H         8.4820935990        3.3681856478       12.7983658990
  H         9.2957157059        3.9541865392       13.8618709325
  O         4.8926300214       -6.3218707964       20.1529607304
  H         4.3439756477       -6.0683299727       20.9247240201
  H         4.5388671850       -5.6509984462       19.4891399516
  O         7.1885415308       -2.5982587302       15.1240717382
  H         7.5137657618       -2.9755883158       14.2848784104
  H         7.4381394927       -3.1523005944       15.9088812159
  O         2.2530068568       -2.9877431355       23.6330114958
  H         2.4384848925       -2.1391968913       23.1611151742
  H         2.8414889272       -3.7262377106       23.3873872980
  O         8.5629950262       -8.9976800862       17.2777474986
  H         9.1761210021       -8.2910759608       17.2872257940
  H         8.6324796108       -9.5586362694       16.4703649704
  O        -5.3803976659       -1.0154287491        8.0535222227
  H        -6.0700729108       -1.2680496000        8.7699568543
  H        -4.8063635219       -0.4190453058        8.5889051276
  O         6.1201449906        6.1944506853       24.4675022181
  H         6.3987859528        6.9016114370       23.8644935559
  H         5.1974422993        6.4897583803       24.8380753944
  O         3.5170510502        0.1710139715       26.5539383300
  H         2.8434222591       -0.5719257821       26.7021978261
  H         3.9750902970        0.2385483973       27.4549331685
  O         1.5142919639        4.9400967146       15.3192823843
  H         2.1485036018        5.5476587908       15.7480826671
  H         0.7759145770        4.8278685166       15.9288414315
  O         8.5291002655        1.2831860625       15.4556483460
  H         7.6496071608        0.8980980577       15.6496895638
  H         8.5972365365        1.3097855730       14.5108633749
  O        14.0593969293        2.3121241723       14.3075625981
  H        14.2860904260        3.0697187762       14.9341681970
  H        14.8876314408        1.7667304708       14.1073454529
  O         6.4899292866       -0.0365913432       15.9725412640
  H         6.7823921640       -0.7794608732       15.4159357506
  H         6.4051728661       -0.3178448336       16.9576368746
  O         8.7320053686        1.1946309435       21.4725749733
  H         9.3353878955        1.3678276569       22.2670068581
  H         9.1209743704        1.4345128973       20.5677929645
  O         0.2532422301        3.3954762931       17.7039414766
  H         0.8416074699        3.5787229731       18.4514206282
  H        -0.5661770322        3.8924459751       18.0031610274
  O        -7.3729494711        0.3521476217       18.4785835278
  H        -6.9151062308        0.0166426889       19.2559336249
  H        -7.4591161036        1.3107120626       18.6498030411
  O        10.7794292195       -3.9999214807       12.3336877249
  H        10.6136158049       -4.5656336243       13.1077401520
  H        10.9906287476       -3.1040665803       12.6828554476
  O         0.9754675279       -2.9642033929       18.4397918106
  H         1.3873073379       -2.1990542251       17.8689407657
  H         0.6018730086       -3.6210593893       17.7898094348
  O        -2.2412242068       -2.7615105808       16.5175965511
  H        -1.9398477494       -1.9481233134       15.9906277279
  H        -2.7510052999       -2.4801877866       17.3864889584
  O         2.9810938381        4.2393896487       24.0784456973
  H         3.4804050088        3.8735294208       24.8644245977
  H         2.2638668266        4.7164533983       24.5107492301
  O         3.3176765009        5.6745683500       17.1185426129
  H         3.6879664510        6.5133851475       17.4497300566
  H         2.6623434859        5.5456822187       17.8465446170
  O        -0.1488149257       -4.2618332575       22.5914817873
  H         0.6756414469       -3.6478409766       22.5870436491
  H        -0.6273116601       -4.1838152047       23.4169936262
  O        -0.5830230720       -1.2992684339       20.1876715058
  H        -0.0897017106       -1.9036840174       19.5559743093
  H        -0.3815008078       -1.7069920890       21.0398060207
  O        -4.7286354514       -7.6798322960       20.5494304483
  H        -4.2623745313       -7.2510135966       21.3220881346
  H        -5.1930000607       -6.9112673468       20.1588817254
  O         4.1217778110        3.2949585141       19.4630662610
  H         3.8112616506        2.8674089472       20.3307124887
  H         4.5897016928        4.0945024486       19.7516939131
  O         2.2280766961       -2.8727562417       20.6264060040
  H         1.6703790898       -3.0883404751       19.8084844805
  H         2.6762849006       -3.6944855438       20.9983047461
  O        10.4048235547       -8.2511066436        7.6295125124
  H         9.4707549214       -8.2176503757        7.9474566476
  H        10.9782454942       -8.3990198213        8.4216642882
  O        -1.6189395243       -5.4634715606        7.3088030803
  H        -0.8576100680       -5.2095906328        7.9246468150
  H        -1.6821572201       -6.4666735888        7.4394421287
  O         1.0777238072       -6.1316698715       13.1810782631
  H         1.1302032517       -6.6610364366       14.1235352759
  H         0.7722276391       -5.1740347454       13.2922636780
  N         7.5669150045       -4.3657307206       17.4385370795
  H         7.6360170987       -3.9205078434       18.3406536494
  H         6.8556058115       -5.0713364967       17.3703707637
  H         8.4424652071       -4.7824506419       17.1364381582
