     193
 CELL 12.4294 12.4294 12.4294 90.0 90.0 90.0 i =    27720, time =    13860.000, E =     -1096.4805678782
  O        -2.8851332508        1.6391082322       11.5578293122
  H        -3.0088928202        1.4545311079       10.5378982462
  H        -3.3910170839        2.4364400855       11.6636119865
  O        -1.8294854941       -8.2418692765        6.4486854387
  H        -1.1779363590       -8.9320210468        6.7347588277
  H        -2.1493012527       -7.8536191885        7.3441746631
  O        -1.8898898898       -7.2280532946        9.2117862683
  H        -2.4848972710       -7.4431652925        9.9627212307
  H        -2.3445489337       -6.4129315464        8.8953662128
  O        -2.5866212925        0.6290724602        8.9521945434
  H        -1.5456898441        0.7360875804        9.0054938007
  H        -2.8350401514       -0.3466855089        8.8635553962
  O       -12.8967754222       -5.1900138399        5.7756195884
  H       -13.6681219572       -4.8159577278        6.3150684241
  H       -12.5919837013       -4.4411698130        5.2239882642
  O         3.4660286083       -6.3539446299       13.5132314469
  H         3.2659114801       -5.4643960469       13.1361834154
  H         2.8232501957       -6.6512522849       14.1458787478
  O        -4.9520143645       -0.4832574389        0.3272728938
  H        -5.2315813160        0.3263722875        0.8115963663
  H        -4.6742464658       -0.0269882584       -0.4888897152
  O         2.7873224320        1.6138574428       11.2111878418
  H         2.0114728114        1.6361310770       11.7824092192
  H         2.6297907914        2.2282723695       10.4541666486
  O        -4.8552422077       -7.2650507331       -1.6259464332
  H        -4.5035661552       -6.8277106385       -0.8051318051
  H        -5.6981466318       -6.7997182770       -1.9650671667
  O        -2.3641109601       -1.0889602881        1.2683438633
  H        -3.2219331325       -0.7656089490        0.8523901484
  H        -1.9309692760       -1.7074680397        0.5855577081
  O        -0.0546528331       -4.5869421451        0.8727852747
  H         0.5413810745       -4.3255378050        1.6466770247
  H        -0.7575060174       -5.1309482468        1.3799838189
  O       -10.8732112152        4.4410288455        2.7278125222
  H       -10.8115861375        3.5848527420        3.2460023363
  H       -11.6453917767        4.8688779484        3.1096880503
  O       -10.9102802634       -3.3494236980       10.6003268862
  H       -10.5877672997       -2.4788422013       10.3239992285
  H       -11.5247716447       -3.6603794263        9.8326078047
  O        -2.6921515683       -2.7282131863        3.3937723975
  H        -2.4350962049       -2.2286203460        2.5879042014
  H        -3.6319147126       -2.8673720893        3.0975787779
  O        -2.3951475817        0.7699858485        4.6457480130
  H        -3.0666966762        1.4080779112        5.0531686014
  H        -2.0664201618        1.2067467028        3.7420440630
  O         6.1234715443       -1.1107738828        6.5039491518
  H         6.5492651541       -0.6984853453        5.7391094635
  H         6.8613189307       -1.5998423761        7.0020776356
  O         3.1326973998       -3.6921077923        0.3806287739
  H         3.8923878738       -3.1026462085        0.2026853965
  H         2.4894614652       -3.7005008460       -0.4184250003
  O         0.4174540932        1.1204817427        9.3353010669
  H         1.3012697706        0.6276992093        9.5821147099
  H         0.1909648274        1.7299548026       10.1437344605
  O        -0.3426197581       -0.5752429019        5.6026728890
  H        -1.0694606366        0.0326950878        5.2638484813
  H         0.0750013354       -0.1769465204        6.3623314964
  O        -3.7405992211       -5.4949508143        8.0855960943
  H        -3.7880964439       -4.9389380864        8.9091450611
  H        -4.3465228505       -6.2365900121        8.1702530131
  O         2.9127345629        3.9912197431       -2.7625005273
  H         3.3073094084        3.5329349310       -3.5414246481
  H         2.0928502633        4.3308464937       -3.1636429176
  O        -4.8883049158        1.7178852605        7.9380789266
  H        -5.6049723074        1.1579867509        8.3610578700
  H        -4.0010823732        1.3921804393        8.2012365227
  O         5.4729008915        0.8482982221        9.4369791953
  H         5.6195590028        1.2992185391       10.2612257752
  H         5.5458090712       -0.1380440529        9.6448305346
  O        -3.8280684489       -5.7089571293        0.2612331480
  H        -4.6459534917       -5.4042694067        0.7757145610
  H        -3.1630766726       -5.7447265569        0.9462331869
  O        -7.0976566902        1.3706267555        5.4052320820
  H        -7.3018679876        2.1205019236        4.8567105806
  H        -6.8649552109        1.8204658136        6.2632016071
  O         5.1146784474       -6.4402517091       -2.9751173270
  H         4.3249629694       -6.9311481185       -2.7211415250
  H         5.5240993722       -7.0744828671       -3.6809228283
  O         2.5980758052      -13.2662231141        9.8766932007
  H         3.0941439294      -12.4945468273       10.2249081609
  H         2.9539670760      -13.5016169256        8.9910588504
  O         0.7425163460       -3.1296347894        4.5208826297
  H         0.2973541096       -2.2570569499        4.8244199036
  H         0.9645339712       -2.8632922682        3.5780740911
  O        -6.1612591019       -7.0613916803        4.7176761295
  H        -5.7322424880       -6.2162107860        4.5108408372
  H        -5.8615522028       -7.6940043064        4.0107193554
  O        -5.5373573610       -9.9194650747       11.1249764101
  H        -5.9488569677       -9.7686091003       11.9952034286
  H        -5.2811852724       -8.9998338693       10.8126847226
  O        -5.4742753268       -4.3561952674        5.8882337350
  H        -4.5690659250       -4.4417141014        6.4080804879
  H        -6.1595109224       -4.3070573484        6.6602060970
  O        -6.4775106880       -1.9846682049        9.7419962694
  H        -6.7194745131       -2.6632915358        9.0818572416
  H        -6.5774203145       -2.4693081757       10.5891057186
  O        -2.1177353348       -8.5688729461        1.4581729212
  H        -1.3261696618       -8.1366389067        1.1108625370
  H        -1.8133537404       -9.5252831709        1.6555141202
  O        -4.9274359511       -0.5913726721        3.9696204320
  H        -5.3582568764        0.1480857586        3.5197052437
  H        -3.9522317310       -0.4798333175        3.8106666551
  O         6.0908290497       -4.8129756519        1.2198968630
  H         5.2419877778       -5.2110807708        1.3548830072
  H         6.2833481668       -4.2780838090        2.0421950422
  O         4.5677416892        3.7086851746        0.6454713022
  H         4.3108546496        3.1820186865       -0.1646204353
  H         4.0345340638        4.6019902061        0.5413425518
  O         0.0342408579       -4.7861224477        8.8178072741
  H        -0.5782460664       -5.4384754955        9.1955515769
  H         0.8460839837       -5.1484244613        8.4484906305
  O         1.7023807018       -1.9986431135        2.0497953737
  H         2.0967143768       -2.6012600224        1.3577422408
  H         2.5847674359       -1.7355119199        2.3924268168
  O        -1.1610697606       -2.8271354765       11.8445806060
  H        -0.3945575960       -2.4325126245       11.4768565354
  H        -0.7466651156       -3.4617638611       12.5314628617
  O         3.3202640475       -6.4746811448        4.9047123316
  H         4.2360707699       -6.7029103238        4.7959182951
  H         2.8912727879       -6.8918562165        4.1717938669
  O        -7.1460915995       -4.1985136204       -4.4459948550
  H        -8.0434493268       -3.8689384456       -4.8048069972
  H        -7.4166193730       -4.9875790310       -3.9338170763
  O        -0.1226992235        5.0176098720       12.8815601747
  H        -0.0581833564        5.8879749068       12.4972544764
  H         0.5888019694        4.8460586667       13.5263769435
  O        -1.3004366703        1.3525365382       14.5526441191
  H        -1.5956976959        0.4901899283       14.1084319409
  H        -0.4174412317        1.2567236635       14.9503619337
  O        -4.5965688617        3.6590536331        2.8638298876
  H        -3.7754452927        3.9743396490        2.4512762141
  H        -4.3069852243        3.3772282962        3.7976921737
  O         4.0815087773        2.3758154411        3.2118677089
  H         3.3569322172        1.7451239305        3.1323332798
  H         4.0598619534        2.9093635951        2.3346541588
  O         6.2833929215        1.4292993336        2.2184359449
  H         5.5150190233        1.8098676927        2.7675011951
  H         7.0040430387        2.0855648816        2.2496457828
  O         1.1875896005        0.7738155518        2.7946263830
  H         1.3128185606       -0.0719557286        2.3674023883
  H         1.1536948254        0.6001177718        3.7474591536
  O         3.5594499198       -1.0479314251        7.2650637617
  H         3.1989047466       -0.2481758312        6.7854380106
  H         4.5180288856       -0.9644225618        7.2223523729
  O        -3.9029761741        2.8542461621        5.4273548637
  H        -3.2863001545        3.5247786026        5.8334558201
  H        -4.5131107994        2.5832843920        6.1498777392
  O       -10.0389550437        1.2072542540        5.4740946003
  H        -9.1057602798        1.6328652617        5.6779449942
  H       -10.6164555854        1.7215216598        6.1285642692
  O         5.6139229137       -2.4994994383       -0.0721443251
  H         6.0045773773       -3.3923822267        0.1365549754
  H         6.2121711365       -1.7691774736        0.2987729209
  O        -2.5114233946       -2.9284506798        6.3003595426
  H        -1.6471930008       -2.4378915509        6.2980271798
  H        -2.8675527137       -2.4694988623        5.4746383682
  O        -5.4991216438       -3.2125712333        3.4530256616
  H        -5.4422314178       -2.2253443627        3.6083640088
  H        -5.3915385576       -3.5726647380        4.3698448714
  O        -0.1678789579        2.4554668087       11.5788034076
  H        -0.3683961070        3.4346085844       11.7238830056
  H        -0.9823286370        1.9164172918       11.6732315233
  O        -0.7518611819        5.2489801656        4.0322961628
  H        -0.4746466125        5.8452998423        4.7358900981
  H        -1.1775035538        4.5208633359        4.5049167119
  O        -3.3881276955       -3.8938624765       10.4235948588
  H        -2.6240398446       -3.3938097928       10.8332785807
  H        -3.6019343061       -4.4827992922       11.1873906276
  O        -3.8577983802       -1.6987524238        8.5627713057
  H        -3.3987106693       -2.4275854975        8.0852904537
  H        -4.4790945511       -2.0077170796        9.2563221189
  O       -11.1590571818       -6.9512428998        7.0639213933
  H       -11.9181356253       -6.3996932740        6.6725013370
  H       -10.3751387219       -6.7088557616        6.4955094717
  O         0.7133972664        2.6918213873        7.0951493213
  H         0.4825143591        2.4084358690        8.0558618614
  H         1.0055875699        3.6028492799        7.0491895083
  O         2.7111169823       -3.5424503148        7.1669365320
  H         2.7655561774       -2.6119715509        6.9226515582
  H         2.5759234131       -4.1485998868        6.3994904634
  O         4.5503736684       -9.7346857694       -4.6785244523
  H         5.3238085961       -9.1465447378       -4.6750082357
  H         4.8256216240      -10.4543425537       -4.0958028614
  O        -5.7576288546       -7.9929726288       -4.7853943785
  H        -5.4910599178       -7.8953050336       -5.6927902571
  H        -5.1809217928       -8.7600013628       -4.4888658218
  O        -1.9797722389       -5.1993882616        2.4435911269
  H        -1.7384755828       -5.8168570065        3.1172842635
  H        -2.0705423854       -4.2592472786        2.8444229079
  N         4.2152902819       -1.3693608505        2.7827103099
  H         4.3662408382       -0.4723914247        3.2851602481
  H         4.5555013257       -2.1251025433        3.3936986427
  H         4.7440437988       -1.3320697694        1.8894393917
