     193
 CELL 12.4294 12.4294 12.4294 90.0 90.0 90.0 i =    59320, time =    29660.000, E =     -1096.4953092985
  O         1.6942376052       -1.1244789281       28.6167012295
  H         2.6192888436       -1.2145750562       28.8607716851
  H         1.4385493706       -0.1372434113       28.7331297968
  O         3.6051106567       -9.4878193639       24.7992410567
  H         4.5637253260       -9.5491724149       24.4286619595
  H         3.5459673908       -8.5941110628       25.2019671524
  O         7.1112461465       -6.4228336306       26.1332492231
  H         7.7375360419       -6.6182194045       26.9082227962
  H         6.2270654389       -6.8132426163       26.3321033217
  O         4.4957971098       -0.6714210847       28.8914726732
  H         4.4078190107       -0.4785541964       29.8371567684
  H         4.4654216682        0.3018281745       28.5454649114
  O        -7.4363722941       -5.4006833833       22.2731097193
  H        -7.8945732234       -4.8717977102       22.9588334078
  H        -7.3109383550       -4.8342274597       21.4450097019
  O         8.9624559088       -7.3805526225       31.3163642817
  H         8.0701756513       -7.0079050388       31.1317490255
  H         9.1340551026       -7.3975902468       32.2852650434
  O         1.1923056031       -2.1230158383       18.5203363829
  H         0.4991617623       -1.5862196263       18.9909358773
  H         1.3147213839       -1.6742409830       17.6161273149
  O        10.7996523117        4.5945968136       29.3183532893
  H         9.9711024506        4.7704535149       29.8527760754
  H        10.4483290812        4.1377797165       28.5365818698
  O        -0.7465729804       -5.5248862662       16.1524092303
  H        -0.2827509742       -5.2129221743       16.9873485640
  H        -1.0315812313       -6.5134440812       16.3714371071
  O         4.1241952653       -2.8796121614       18.6335189627
  H         3.2873084159       -2.6639713447       19.0104007107
  H         3.9585829895       -3.3118695632       17.6983889687
  O         6.1816566116       -6.5076522249       17.8148755874
  H         5.9922284507       -5.6911763101       18.3780985474
  H         5.6913768120       -7.1210449433       18.3669783361
  O        -2.8166364596        5.0512492811       21.7875686760
  H        -2.1851614445        4.3520693393       22.0693716135
  H        -3.5876395645        4.9637443015       22.3727474946
  O        -5.4982112734       -1.6402814001       28.2395297482
  H        -6.3701481011       -1.2045576317       28.5217078901
  H        -5.8554195572       -2.4239578281       27.7737334496
  O         2.2958175909       -4.3554999748       20.9157894883
  H         1.8979012609       -4.9374356842       21.6040039625
  H         1.5627043409       -4.1589987504       20.2324463494
  O         1.8637190572       -0.0729903476       21.0768292651
  H         1.7978727258        0.6401014423       21.7909315772
  H         2.5400135036        0.1453136166       20.3401059333
  O        15.2541710311        1.0350334689       26.9575218377
  H        15.5678707720        1.5153865157       26.1743859691
  H        14.8289876420        0.2519826470       26.5654228530
  O         8.2550341339       -4.2556555161       17.0574835463
  H         8.7896894734       -4.1934544187       16.2046869723
  H         7.6405696959       -3.4592367767       16.9152752901
  O         6.4723413219        2.8073435051       26.8313966347
  H         6.8533874763        1.9309682636       26.5720721443
  H         5.7954128726        2.5428119585       27.5432969654
  O         2.9853953214       -2.3115441172       22.6105560682
  H         2.8637217526       -1.4534838091       22.0826239557
  H         2.6232351313       -3.0258497856       22.0598953634
  O         4.1469682878       -6.6383081111       25.9453039270
  H         4.2189697487       -5.7303818963       25.5196442697
  H         3.4474584444       -6.4087911335       26.6368179136
  O        10.8559691847        3.8613524643       14.2944834699
  H        10.8449363259        2.9112926794       14.1231491997
  H        10.4364745791        4.3440232007       13.5455467375
  O         1.0981810454        4.1072045800       26.3954018849
  H         0.1771784357        4.1139361888       26.8603328623
  H         1.6492709936        4.3415663097       27.1357669074
  O        10.8215238130       -1.1496185738       30.3324108896
  H        11.0673421405       -0.9500838855       29.3964469643
  H        10.5868412246       -2.0962882061       30.4113086619
  O         2.0355844588       -8.3879096617       16.5134563311
  H         2.2978570044       -7.6677041008       17.1238265760
  H         1.0786654376       -8.6463891760       16.7707967573
  O         0.7199913524       -0.1019868778       25.2951098478
  H         1.0625032450        0.7038450606       24.8151020414
  H         0.6290215151       -0.6478818775       24.4668537405
  O         9.5411075019       -4.4236368225       14.5465944463
  H        10.3957126648       -4.5921692619       15.0190529556
  H         9.7789270321       -3.5868121109       13.9916573666
  O         8.4668997266      -12.1904290449       30.5906986654
  H         7.7748734302      -12.8736866974       30.3252533274
  H         9.3658299989      -12.6716944574       30.8426466349
  O         5.6486593592       -4.6694528324       19.7090561655
  H         4.9728070924       -4.0306790859       19.3172165038
  H         6.2876690031       -3.9848923053       20.0381481490
  O         0.7633961468       -6.8666847612       21.7642579870
  H         0.5584851080       -6.7414656453       22.7343028293
  H         0.0919832949       -6.5045262084       21.2003848545
  O         0.3781825894      -11.2252053827       28.6160383300
  H         0.1000622878      -10.5892967475       29.3523119528
  H         1.0853935385      -10.7340916060       28.1398218845
  O        -2.2967434874       -2.4034362479       25.3931028533
  H        -2.7338421406       -1.5797056398       25.5809320370
  H        -1.4207681546       -2.3009670067       25.9279042820
  O        -2.7937749554       -3.2917404145       31.4519544305
  H        -3.2714925676       -3.8744607505       30.8369647582
  H        -2.2405615339       -3.8209066036       32.0182324086
  O         7.9887729931       -9.9865363840       19.3384315410
  H         8.4460904449       -9.1426666399       19.0027816568
  H         7.9912584985      -10.7268510304       18.6451259145
  O        -0.3377593140       -2.1461796773       21.1671416120
  H        -1.1911327853       -1.6588782110       21.2252917234
  H         0.4261231170       -1.4746054985       21.0866527260
  O        10.7303208353       -5.0746944217       20.7952403431
  H        10.2476739058       -5.8819495972       20.8502260730
  H        11.0623645514       -4.7433094736       21.6242080694
  O        12.1614330726        2.6790923587       18.7131856938
  H        11.5786191537        3.3764135720       18.3460938371
  H        11.5901149292        1.9880558333       19.1231420935
  O         7.2190013212       -6.8612562426       23.2090820338
  H         7.2245649133       -6.6939333453       24.1875259069
  H         6.5625705737       -6.1732423409       22.8727001026
  O         7.7142691255       -3.0450766912       20.9479541480
  H         8.5301044349       -3.1835084065       20.3079630415
  H         7.7164472239       -3.3203772978       21.9676195654
  O         4.0818447841       -4.4545370480       28.8618104674
  H         4.6016831542       -4.1852205273       28.0765258095
  H         4.4165466207       -5.2289387462       29.3397139922
  O        11.7251316504       -9.3612815360       22.4169391445
  H        12.3339263374       -8.8636839057       21.8441871643
  H        11.4402058209      -10.1003734723       21.8654393089
  O        -4.2744501139        0.4114403211       14.1590550810
  H        -4.7514004849       -0.2289458654       14.7843294267
  H        -3.3902816132        0.5683773508       14.4983629406
  O         8.2475768486        4.8308684327       28.3174402991
  H         7.4676774576        5.0857852126       28.7693634735
  H         8.0117713697        3.9088374082       28.0844733093
  O         6.2100427041       -0.8348266751       32.5696654872
  H         6.4844649113       -1.6629045512       33.0356974720
  H         6.8358382167       -0.1577117423       32.8840026849
  O         5.3081860044        3.0454590459       19.0910738618
  H         6.1748642024        2.8522244726       19.4516093364
  H         4.8139921676        3.7396703555       19.6278530076
  O        10.3259160465        1.3002379556       20.4930012962
  H        10.0574785061        0.4622301183       21.0434960492
  H         9.3906911422        1.6084965188       20.2796663060
  O        16.4524227310        0.1619397648       19.3915667186
  H        16.8985939171        1.0624100546       19.4485517533
  H        17.1777435466       -0.3939513884       19.8788656188
  O         9.1667244436       -0.8608649196       21.8251910930
  H         8.5127937786       -1.6116422823       21.5088709202
  H         8.6791966274       -0.4665963351       22.6019632996
  O        10.9914141372        1.0524783100       26.4875450390
  H        11.3923827835        0.9104238609       27.3953576891
  H        11.7302772382        0.6337732376       25.9455655569
  O         1.4385141850        1.7063329719       23.3324211204
  H         2.1791327564        2.2205818735       23.6635742971
  H         0.7273005055        2.4130642354       23.2628924119
  O        -4.9644639730        0.1603435050       23.9812841485
  H        -4.5218608788        0.1417599899       24.8958563649
  H        -5.5020189524        1.0769844421       23.9410983970
  O        12.8760941106       -4.6206866214       18.4285947548
  H        12.1644962181       -4.8838397186       18.9825779512
  H        13.0477554529       -3.6254415992       18.5100503748
  O         4.2005354865       -3.5842009008       24.5939789725
  H         3.9142269847       -2.9120782751       23.8032664178
  H         3.3244278029       -3.6352052905       25.0813779582
  O        -0.8117610771       -3.8481036748       23.2257616179
  H        -0.4930033430       -3.0457140673       22.6744768401
  H        -1.4470284491       -3.4171149041       23.8253029604
  O         4.7399884223        2.3187342729       28.7968024494
  H         4.8731081593        2.5042780607       29.7449336421
  H         3.8428732823        2.6755241207       28.5915014763
  O         3.7190749679        4.7821188469       20.8965490685
  H         4.2090911843        5.4369302702       21.5008879650
  H         2.7864541397        4.8970451699       21.1265979245
  O         1.9477765102       -5.7155777520       27.8066343080
  H         2.4782477594       -5.3308876783       28.4851744676
  H         0.9959472910       -5.7232450267       28.1268419766
  O        -0.0307138735       -2.6154078361       26.9244829014
  H         0.5546106332       -3.0874039261       26.2590945779
  H         0.5198869531       -1.8795926021       27.2727565897
  O        -2.2119768825       -6.2337830530       25.0344376749
  H        -2.6740157240       -5.7476140993       25.7316994969
  H        -2.8921066039       -6.3067196584       24.3289276493
  O         6.1969078554        3.0349841155       24.0135633781
  H         6.1878558082        3.0969579349       25.0422119317
  H         6.3995599577        3.9631827121       23.6889355980
  O         5.8763695352       -3.7091857946       26.9129268629
  H         5.3265408691       -3.5133109953       26.0638498911
  H         6.2126091638       -4.6791539217       26.8561749867
  O        13.0705992530       -6.3467362292       12.0414323837
  H        12.1268908452       -6.1631067173       12.3420837010
  H        13.4396033508       -6.9587194300       12.6757338514
  O         1.7738167054       -4.0838657080       13.1355623677
  H         1.8485450927       -4.6158281735       14.0437680895
  H         1.3567261072       -4.7994710476       12.5373856479
  O         2.9342633595       -6.4497886380       18.3678864011
  H         3.3690660709       -6.3297805441       19.2216725275
  H         2.1311995851       -5.9269187869       18.4909593040
  N         7.4863600191       -3.3482666652       23.7827205918
  H         6.7121736356       -3.7105006194       24.2763053800
  H         8.2979294230       -3.6268795737       24.3673671342
  H         7.3967715902       -2.3668558658       23.9197956862
