     193
 CELL 12.4294 12.4294 12.4294 90.0 90.0 90.0 i =    28920, time =    14460.000, E =     -1096.5038471699
  O        -3.4618907986        1.0833853983       11.4019899021
  H        -3.0382203760        0.5857382003       10.6186478494
  H        -4.4420804428        1.3262942104       11.3201471155
  O        -0.8733089986       -7.9641045528        6.9750209701
  H        -0.2383332897       -8.6688820978        6.9926533794
  H        -1.1154978381       -7.6926798681        7.9012847551
  O        -1.6957457680       -7.2404389715        9.3098043303
  H        -1.5988344744       -7.9120514532        9.9940794434
  H        -2.5769067303       -6.7410535445        9.5285905959
  O        -2.4261976826       -0.1434076746        9.2799015562
  H        -1.5763995380        0.0585036353        8.6963730504
  H        -2.7832444604       -0.9826802236        8.9550450783
  O       -11.4836210268       -4.2425104258        6.2402149872
  H       -12.2974865717       -4.4028283797        6.7720378531
  H       -11.8868306192       -3.6071812770        5.5789711044
  O         4.3684827413       -5.7920326073       14.0353821870
  H         4.0939955863       -5.1610292631       13.3553182697
  H         3.6662352301       -5.8782349803       14.7432905592
  O        -3.4615749477        0.2753692625        1.7295126804
  H        -4.3206471433        0.5224131883        2.1250355840
  H        -3.4273792621        0.6105210438        0.8096507619
  O         2.3372283466        3.4399526962       11.9578642936
  H         1.9043772419        4.1493645454       12.5033870349
  H         2.7394394343        3.8197845680       11.1772025175
  O        -5.4625133121       -7.7622449588       -0.7254566551
  H        -5.0701997116       -7.3058707766        0.0973228494
  H        -6.1488607791       -7.1361433978       -1.0510595422
  O        -1.8738422967       -1.9974700403        2.4915046184
  H        -2.4783920205       -1.2572199731        2.4774482322
  H        -1.9804562667       -2.4495343276        1.6071406972
  O        -0.6061009496       -5.1163438648        1.7509167421
  H        -0.0464685113       -4.4763969015        2.2949920512
  H        -1.2918549579       -5.3394084961        2.4678760418
  O        -9.9065686020        5.4582742774        3.3135163962
  H        -9.6033035831        4.5316563388        3.3474427964
  H       -10.4847328286        5.6396402790        4.1068918169
  O       -11.4168743436       -2.0421522805       11.3003164308
  H       -11.2577963145       -1.0989956566       11.3708616842
  H       -11.3929813767       -2.3007481994       10.3478850060
  O        -2.7394284278       -3.6103382266        4.6074152949
  H        -2.5118546136       -2.9430358556        3.9120507119
  H        -3.6958144268       -3.4633844153        4.9486700789
  O        -2.3208197343        0.1247776793        4.7227097128
  H        -2.5851997299        0.9015100448        5.3048914583
  H        -2.0262922643        0.5274079667        3.8622573652
  O         7.0571516198       -0.6725487147        7.3890724137
  H         7.2779279175       -0.7380503167        6.4634564851
  H         7.4998838084       -1.4399269974        7.8418429072
  O         2.9899106404       -3.4316570391        0.2222419140
  H         3.7112983145       -2.8611792940       -0.2062829627
  H         2.1399681996       -3.1192772638       -0.1610001944
  O         0.1293412990        1.5738930174        9.6728563378
  H         0.8903938923        1.3253231734       10.2267138772
  H        -0.3980328031        2.2478416553       10.1526521157
  O        -0.7382389611       -0.5674301477        6.8851200694
  H        -1.2036375656       -0.4649635742        6.0273245691
  H         0.2020463693       -0.4414323479        6.6774990922
  O        -3.8622156754       -6.0734560614       10.0933338615
  H        -3.6929744218       -5.2097015565       10.5157216631
  H        -4.2329402264       -6.6228339238       10.8023874638
  O         3.5489644468        4.0903689206       -2.6764585481
  H         4.2402821268        3.5161727274       -3.0859250686
  H         3.1079398269        4.4282933106       -3.5159642562
  O        -4.4485406089        1.7532171686        8.1289607236
  H        -4.6629464407        0.8034019777        7.8227395301
  H        -3.9528162833        1.6627282386        8.9564558355
  O         4.8608724488        0.1072388477       10.1871708379
  H         5.3735473669        0.7245876983       10.7446048954
  H         4.8845621280       -0.6822978497       10.7560719259
  O        -4.7292611603       -6.6130818089        1.6158390707
  H        -5.2124692171       -5.7568982974        1.6963644875
  H        -4.0041066361       -6.5398712315        2.2995523255
  O        -7.3542667253        1.7236181532        5.3425706049
  H        -8.2434500750        1.9757803857        5.0610347146
  H        -7.2660817477        1.8573645958        6.3063773093
  O         5.3553508327       -6.2443184367       -2.3743443089
  H         4.6823543647       -6.9485657095       -2.6470603345
  H         5.9806780888       -6.1567842787       -3.1033276551
  O         2.2615028521      -11.6205168802       11.2771115799
  H         2.2558625344      -10.6641372061       11.6014460318
  H         3.1235906695      -11.8888001434       10.8098256626
  O         0.6873593394       -2.8949637538        3.4968773099
  H         0.0527434490       -2.3239515133        2.9748087974
  H         1.5466795197       -2.5576318183        3.2221557194
  O        -5.2025455976       -7.1665795763        4.8642186830
  H        -4.5307645845       -6.4534897544        4.8781279346
  H        -4.7900339140       -7.8032136793        4.2531395951
  O        -5.9096306140      -10.4519047368       11.5620249119
  H        -6.4506982783      -10.7462022643       12.3719999355
  H        -5.8765864552       -9.4811814545       11.5935982439
  O        -6.2961213345       -4.3212172049        7.6191382087
  H        -5.4604263888       -4.1332980916        8.0717508876
  H        -6.9244366230       -3.8909390802        8.2569924356
  O        -7.3345543481       -1.8568437155       11.8963787786
  H        -7.3231498292       -2.3090623096       11.0246850023
  H        -6.4292103881       -2.0820251896       12.3403344054
  O        -1.5741219661       -8.4237575361        1.6066697580
  H        -0.6146655034       -8.2047654210        1.6997029208
  H        -1.5139694956       -9.4173767959        1.7166704966
  O        -4.6902584585       -0.9422519363        4.7669012801
  H        -5.0911902122       -0.1835801600        4.2842866494
  H        -3.6865808269       -0.7343223540        4.7531796168
  O         6.6754449122       -4.1532323138        2.3423843235
  H         5.7982018647       -4.5205217254        2.0452001974
  H         6.5726904788       -4.1359366879        3.3700914578
  O         5.0177989142        3.7219143707        1.4080522750
  H         4.2541928226        4.0149431427        0.8527417752
  H         5.6061914555        4.4925587559        1.4856873417
  O         0.4102990340       -5.5967622315        9.6429260330
  H        -0.3580264533       -6.2227610576        9.6214093572
  H         0.9652158905       -5.7889396699       10.4453228325
  O         2.8527888235       -1.8528225141        2.5749770105
  H         3.0787737334       -2.3724088941        1.7341856598
  H         3.4768892468       -2.2466228157        3.2899695120
  O        -1.3640916831       -3.1837199291       12.3261857871
  H        -0.5228044160       -3.0647500692       11.8885874834
  H        -1.2547203194       -4.0024834894       12.8859593863
  O         4.6135636184       -6.5532492203        5.3974233636
  H         5.5568419919       -6.8682781368        5.2727702011
  H         4.3307258977       -6.4709481271        4.4679436820
  O        -7.8330734722       -3.4549038204       -2.6518286787
  H        -8.8013312974       -3.3147055817       -3.0601830394
  H        -7.8034244346       -4.3723433996       -2.2808319849
  O         0.9480257951        5.1676872572       13.5474054016
  H         0.3416852184        5.9531863154       13.5681689596
  H         1.5976831049        5.3334857457       14.3328448437
  O        -0.6758037179        0.8887834347       15.0578553807
  H        -0.7420709280        0.2846135094       14.2800262942
  H         0.3675444081        0.9492725829       15.2353840269
  O        -3.7110090885        3.3770008157        3.4223226773
  H        -3.0771650395        3.7720194341        2.7176698883
  H        -3.0585867040        3.2416992321        4.2502678967
  O         3.3793315247        2.9574348971        3.4570626832
  H         2.7396586956        2.2438058040        3.2458673203
  H         3.9977210513        3.0812940728        2.7240042952
  O         6.9870540716        1.2134950660        3.2486421400
  H         6.1589602640        1.3902945963        3.9209843959
  H         7.4449998549        2.1184376068        3.2453449639
  O         2.0554791406        0.6400864299        3.1578388416
  H         2.3366966572       -0.1223350391        2.6205186987
  H         1.8224639375        0.2262928774        4.0167556137
  O         4.2578180647       -1.1129793696        7.8920403056
  H         4.7103692375       -0.8892775007        8.7411742792
  H         5.0068435133       -1.1426917960        7.2348535516
  O        -2.4864236725        2.7592621097        5.8323151365
  H        -1.8634400609        3.4631930824        6.2750094653
  H        -3.2840655815        2.9479267661        6.3617391760
  O       -10.7140008025        0.2936521436        6.0005307326
  H        -9.8025895637       -0.0469167553        6.2542142477
  H       -11.0154247813        1.1923936382        6.3570267728
  O         7.6163580832       -1.9808471935        0.8916636380
  H         7.3812141775       -2.5770058147        1.6358131168
  H         8.1653641446       -1.2309776494        1.2632500501
  O        -1.5736281314       -3.1621347897        7.0100563614
  H        -1.1984250388       -2.2559316685        7.1510880305
  H        -1.9541669852       -3.2886761729        6.0970362826
  O        -5.4714579065       -3.4547702972        5.0549987310
  H        -5.3130176865       -2.4696836042        4.8023951818
  H        -5.7554171265       -3.4532922743        6.0523294714
  O        -1.6068216820        3.1099687801       11.2272370544
  H        -1.4344715330        3.5333444812       12.1239691565
  H        -2.3655395274        2.5055731095       11.2867682113
  O        -0.0511290415        5.8749560651        4.7733295990
  H         0.2938233621        6.7626783996        5.0614705997
  H        -0.2473918477        5.4715267977        5.6780034192
  O        -3.7040848477       -3.3284237636       11.0983528079
  H        -2.7845558307       -3.3104321303       11.5496541441
  H        -4.3352644807       -2.9150584781       11.7495249104
  O        -3.8483951445       -2.5600125632        8.5838693154
  H        -3.0090356404       -2.6912378174        8.0996264647
  H        -3.6953313234       -2.9972293497        9.4707263095
  O        -9.6309483369       -7.7640799296        6.9732227662
  H       -10.2746358622       -7.0713382946        6.7998438865
  H        -8.8331335914       -7.5502891460        6.3530993669
  O         1.0626804684        2.5231752968        7.3966154892
  H         0.8035255195        2.2128134843        8.3301828285
  H         1.8397055947        3.1504924825        7.4050835558
  O         2.1471873454       -2.6903850009        8.6627997774
  H         2.8201362335       -1.9731218743        8.3489683392
  H         1.9661666542       -3.3443196785        7.9580349280
  O         5.1335237730       -9.8931157647       -4.3831846843
  H         5.7737671350       -9.1274310271       -4.4859863839
  H         5.5389176731      -10.5755311068       -3.7888016893
  O        -5.3648566626       -8.0067082316       -4.3262272591
  H        -5.2108792720       -7.7352975587       -5.2476963612
  H        -4.7092264210       -8.7473084052       -4.3021836874
  O        -2.4404061215       -5.9840336724        3.5548643869
  H        -2.0343313214       -6.7539418431        4.1025190600
  H        -2.6596339820       -5.1280089401        4.0687998384
  N         3.9737299501       -2.7193377484        4.9534683974
  H         3.9757357041       -1.8224292704        5.5034887114
  H         3.2606179354       -3.3770109073        5.2348297945
  H         4.9073613456       -3.1232814311        5.0674205119
