     193
 CELL 12.4294 12.4294 12.4294 90.0 90.0 90.0 i =    79320, time =    39660.000, E =     -1096.5174703174
  O         5.7747939118       -1.2208669799       39.2670586309
  H         5.1860583931       -0.4113671244       39.0431579220
  H         5.6637546065       -1.4444096497       40.1702657423
  O         6.1038340103       -7.8555993173       36.6857814002
  H         6.8018437764       -8.5464001738       36.7163686671
  H         6.5411451856       -6.9449666628       36.6912440297
  O        10.7043930247       -4.0579869938       37.4815434948
  H        11.6972540219       -4.1790419796       37.1801073721
  H        10.3246540772       -4.9685592314       37.5787989164
  O         8.3840745612       -0.3460666781       38.7293037281
  H         7.6305306861       -0.9119815904       38.8874660871
  H         8.1397649095        0.5607278375       39.0443019378
  O        -4.1517579802       -5.7322047576       33.9562148951
  H        -4.1770322589       -4.8005225300       34.3149823330
  H        -4.0785304703       -5.3801472421       32.9717033702
  O        15.3182833254       -3.9273187385       44.9801602308
  H        14.5057965412       -4.0055850978       44.2918256968
  H        15.6462683013       -4.8180899384       45.1177417771
  O         5.3974298778       -1.6286141508       29.6787127660
  H         4.7615646690       -0.9071174429       29.8691146660
  H         6.2459102459       -1.4287162694       30.0963510013
  O        13.3854483368        3.5422726822       40.1589728906
  H        12.7083661387        4.2603247298       40.3437613837
  H        14.0818517523        3.8611914201       39.4836490099
  O         2.8681982340       -6.3683702832       30.4062187725
  H         3.3494185422       -6.2303988559       29.5815756971
  H         2.4763567606       -7.2996913081       30.3442156458
  O         9.0119306773       -2.4937653532       28.8087695678
  H         9.6078016936       -2.5239191629       28.0333199121
  H         8.5703047802       -3.3312330590       28.8229083114
  O         8.8215070128       -4.7326802952       31.4398602488
  H         9.5530845573       -5.1382765606       30.9414242423
  H         8.0165164479       -5.1296155286       31.0238431438
  O         1.0995429297        5.0335655924       33.7987082183
  H         2.0345901715        5.2941834301       33.4650310876
  H         0.7998425018        4.2951400196       33.2256748364
  O        -2.0252097657        0.9286680571       41.6924731041
  H        -1.5024783736        0.9415201534       40.9013734760
  H        -1.7138749819        0.0530996802       42.1413785732
  O         6.6390642263       -2.7368959464       33.3462949353
  H         7.4036571760       -2.4007616858       32.7789575580
  H         6.1218098746       -1.9052663712       33.5627775292
  O         6.4825437498        1.6916072490       34.2358254869
  H         6.0030163413        2.5268366805       34.2964949407
  H         7.1380810972        1.8825426368       33.5571313570
  O        16.6053647188       -2.0913235012       36.3052787131
  H        16.5643474533       -1.9179358200       37.2694293451
  H        15.8077537579       -2.5467795739       35.9760180135
  O        13.2813304211       -4.2002327964       30.5038293907
  H        13.5823776272       -5.1606041541       30.2431223786
  H        12.3853731217       -4.3604603999       30.9208003497
  O         9.4382084952        3.0047580364       38.6194640395
  H         8.9963865299        2.8385433354       37.7529710100
  H         8.8114288356        2.7602425179       39.3233905242
  O         5.1019894561       -0.7085257823       34.2741079780
  H         5.5189816431        0.2088756315       34.4950800072
  H         4.7679359647       -1.0934307275       35.1209168311
  O        10.0225513760       -6.4846793170       38.9028345494
  H         9.3767238926       -6.1636993827       39.5873155904
  H         9.8297322614       -7.4635314737       38.8419173151
  O        14.4239540454        4.0992520713       25.3391369438
  H        14.2130972090        3.2644653842       24.8981083630
  H        13.8442878377        4.7517312512       24.8788009403
  O         4.4155222954        3.9739696382       38.6420920156
  H         5.1326705276        4.2460159016       37.9164736407
  H         3.5574239753        4.1937841553       38.1323320428
  O        13.6358087390       -0.2052957091       38.4236263049
  H        12.8083385925        0.3078158485       38.6543276627
  H        13.8179330670       -0.9655276574       39.0558382506
  O         5.2127173956       -8.9394396617       29.7626502790
  H         5.2994831591       -8.0446095369       29.4007678092
  H         4.2671570709       -9.1266336752       29.6027367921
  O         2.1875138366        1.9987510420       36.0819320456
  H         2.8609026923        2.4636348452       35.4841331616
  H         2.6530794862        1.3806765477       36.6996642420
  O        13.3355523461       -4.6492390986       24.5107762996
  H        13.8834365458       -4.8091766997       25.2653563834
  H        13.8296143803       -3.9679667874       23.9177507284
  O        10.7067096052       -9.2128281046       43.2269357204
  H        10.7779999113       -9.9103633812       42.5140260150
  H         9.9060804018       -9.4044380423       43.7185741409
  O        11.0559692045       -1.4164843748       30.2630696137
  H        10.3333345224       -2.0314984084       29.8708835799
  H        11.4505004713       -1.7865147328       31.0461435243
  O         5.5969875683       -5.1301372781       33.2702311132
  H         6.4578576344       -5.4285943372       33.5741192413
  H         5.8243988720       -4.1602112946       33.0634568869
  O         4.1454733920      -11.4555808287       38.1808188083
  H         3.2122935096      -11.7299156065       38.3755762527
  H         4.2639315744      -10.6232996847       38.7529278192
  O         1.9116225964       -2.9812432227       35.1146157350
  H         1.1685198174       -2.4133637061       34.9568416556
  H         2.0855451971       -3.4486788874       34.2902229144
  O         1.5217517374       -2.1020239664       40.6643162184
  H         2.0016627427       -1.6339617675       41.4026580146
  H         0.6129688234       -2.0756039321       40.9084786034
  O        11.2095219695       -6.1621208607       30.4867976042
  H        11.4081727051       -6.0387565283       29.5175236095
  H        11.1763884589       -7.0997065235       30.7061282090
  O         3.0800812875       -0.3857763294       29.9638007196
  H         2.8414863497       -0.4958269381       30.9125329215
  H         2.8092821165        0.5563943477       29.7163571668
  O        15.4359306201       -1.0269653128       32.5872039285
  H        15.5656498472       -2.0228056683       32.5464004023
  H        16.2631259444       -0.7577290169       33.0364159164
  O        14.8545566777        2.3280386835       29.6272234628
  H        14.3896950538        2.9252299291       28.9956635427
  H        14.3711447710        2.3392911656       30.4778783913
  O         9.7512702571       -7.7826804010       35.0664527631
  H        10.5182093172       -7.4614959105       35.6054722328
  H         9.1794712040       -6.9562780855       34.7457461240
  O        11.4385563935       -2.3689514497       32.7897477969
  H        12.1316830440       -1.9832514817       33.3429587180
  H        11.4412409608       -3.2852051477       33.1554115980
  O        12.1964185653       -6.4802631522       40.4914088239
  H        12.8209203050       -5.7684948450       40.3514557255
  H        11.5006111967       -6.2960803618       39.8295765363
  O        16.1729561251       -6.8992413430       33.2418689119
  H        16.8987967441       -6.2659065949       33.4081035624
  H        16.2073308740       -7.1004228422       32.3105221289
  O        -3.0665802219       -0.8655664995       23.8402425828
  H        -3.4424149068       -0.6436430858       24.7829225623
  H        -2.1043154751       -0.8094967214       23.9718003289
  O        11.5748074224        1.6262763747       39.2401522979
  H        12.1929070121        2.3767983984       39.4563755409
  H        10.7471458401        2.0872422852       38.8729830717
  O         9.4612858761       -0.1030141911       45.8559831437
  H        10.1252053792       -0.7148442382       45.4296748222
  H         9.1470885806       -0.5364680951       46.7305133502
  O         6.3901231510        4.3721182976       32.0206015185
  H         6.0585628711        3.9064556713       31.2410543713
  H         7.3635004982        4.2756127482       32.0711661712
  O        13.4363679391        2.7312640114       32.0829321438
  H        13.3350151891        2.0143369295       32.7590621104
  H        12.5289045174        2.7068079207       31.7066827168
  O        20.2701180700       -1.0105284341       31.2197911233
  H        20.6622865989       -0.4014065262       31.8626929967
  H        21.0708640934       -1.4810087010       30.9258928743
  O        11.4142325020        1.4781247805       35.8989737921
  H        11.8718039865        1.9214960352       36.6209784418
  H        10.5282805574        1.6796335582       36.1440590167
  O        14.2923262713       -4.7830255044       40.0084190578
  H        15.1420891677       -5.2105859783       40.1248925979
  H        14.3254617483       -3.8145557473       40.2780564664
  O         4.3974694771        3.2464723864       34.9518505954
  H         4.9608377364        3.9006455603       35.4986937582
  H         4.0471099986        3.9565530482       34.2994564274
  O        -0.0409099595       -1.3672380831       35.8883645482
  H         0.0691835990       -0.4564943297       35.4679687037
  H         0.4892383299       -1.1477550507       36.7297154408
  O        16.9163884859       -4.1588888340       29.7615121397
  H        16.3764104857       -3.9859812159       30.5236410489
  H        17.3419576618       -3.2884084074       29.6654687436
  O         8.2682848877       -3.3720678652       35.4358984420
  H         7.6099822364       -2.9231641419       34.8613094325
  H         8.8268136158       -2.6337351749       35.7728506446
  O         0.9483703640        0.4599100342       33.8093852296
  H         1.2942659679        0.8335269946       34.6432894083
  H         1.7139757200        0.0841254573       33.3398415782
  O         7.8371524650        1.8798610545       40.8055820983
  H         8.6295815978        1.5628041267       41.3293206838
  H         7.0205716496        2.1067796166       41.2857344164
  O         9.1045139356        2.5622877025       33.0560683678
  H         9.6164512603        1.7438179627       33.2609008682
  H         9.4501178863        3.1663847081       33.6679939195
  O         8.1525403469       -5.4847213485       40.4940673875
  H         7.4350542413       -5.2411325421       39.9080375316
  H         7.6619907132       -5.7212283115       41.3573463538
  O         4.2768170095       -6.4895280190       40.5137820247
  H         4.8170436346       -5.7504466841       40.0417893047
  H         4.2193036481       -7.2907397680       39.9196573416
  O        -0.0251123372       -7.0350451638       36.1597701812
  H         0.1419714434       -6.0743988803       36.4628989578
  H         0.5703671418       -7.0902611977       35.3349796207
  O         8.2646163195        2.7174743321       36.2817845115
  H         7.9342831244        2.0114475338       35.6861121461
  H         8.7989524763        3.3809635516       35.7214378711
  O        10.6161916515       -1.9551527832       39.2300599002
  H        10.1787795152       -2.4243740504       38.4468485831
  H        10.0210247572       -1.1471474188       39.2909114564
  O        19.8895527286       -5.4898153897       24.4361080983
  H        20.2454511845       -4.6510880416       24.0234007330
  H        20.5768444086       -5.9094686410       24.9431978303
  O         5.7888221248       -4.5228325032       26.6086772573
  H         6.1358825952       -4.8804310937       25.7431157603
  H         5.7312434685       -3.5281685699       26.4523132095
  O         6.6193079706       -5.8079514203       30.4010921093
  H         6.3012828755       -6.3197763277       31.1773868901
  H         5.9064494687       -5.1466010014       30.3192417216
  N        11.4890250868       -4.7149473955       34.1018874084
  H        12.2799745292       -5.1262247379       34.5254650717
  H        10.8252056533       -4.4482280301       34.8178809597
  H        10.9620645679       -5.5180412845       33.7196235980
