     193
 CELL 12.4294 12.4294 12.4294 90.0 90.0 90.0 i =    56120, time =    28060.000, E =     -1096.5050375719
  O         1.0999862486       -1.2043107402       26.6322440878
  H         2.0700324748       -0.9411736245       26.7741906939
  H         0.6768469969       -0.3289276100       26.8562820431
  O         4.0697461326       -8.9744033129       22.2379665786
  H         5.0244070565       -9.2968606790       22.4228675758
  H         4.0517073979       -8.0934200974       22.6305733448
  O         5.5876662849       -5.7500081764       24.3867181902
  H         5.7936835599       -6.2374531257       25.2179130474
  H         4.6809977093       -5.9741615002       24.2357641821
  O         3.7492972360       -0.5345757974       27.0089328372
  H         3.4295778233       -0.1464496402       27.8803971638
  H         4.2346770221        0.1543466723       26.5031968080
  O        -7.3439503615       -5.4635143480       20.3155324587
  H        -7.8161646666       -4.8349361108       20.8981872548
  H        -7.2566876361       -4.9534228744       19.4301211057
  O         8.2697571658       -6.3586916168       29.4974018216
  H         7.9702907721       -5.6763446379       28.8927621682
  H         8.6075723868       -5.9514071906       30.3117684455
  O         1.1566115949       -2.4050797967       17.1504852840
  H         0.4926136628       -1.8540822951       17.6524590867
  H         0.9419325103       -2.3477229949       16.1878093263
  O         8.8838890249        3.5712728964       26.8982478102
  H         8.1115994729        4.1670162973       26.9758072820
  H         8.8893995534        3.3330718265       25.8503705246
  O        -1.8562066535       -6.5565566911       15.1141260320
  H        -2.3010956144       -6.3321759903       15.9568631643
  H        -2.1808768363       -7.4123700759       14.9402679324
  O         3.9660085288       -2.5633206146       16.9900086982
  H         3.1206947111       -2.4629650935       17.4793477857
  H         3.6260180318       -2.8223528971       16.0515464980
  O         4.9371165122       -5.5129753651       15.3620007813
  H         5.7290159542       -5.2617920620       15.8664961556
  H         4.2520179760       -5.6609833773       16.0228310260
  O        -3.4319241998        5.1594363673       20.1094104491
  H        -2.9917736479        4.4701245027       20.7722884125
  H        -4.2421244278        5.4639837439       20.6510585447
  O        -6.0432153078       -1.9855948312       26.4043869455
  H        -6.5085359758       -1.5656351290       27.1996560092
  H        -6.7303201872       -2.1998468645       25.7055008650
  O         1.5275193794       -4.2846003681       19.4342341236
  H         2.1527359993       -3.6369260530       19.0481053286
  H         0.9316637198       -3.8803154564       20.0807404449
  O         1.3875950350        0.7124019628       19.0695843782
  H         1.6657156164        1.2822642187       19.8385467413
  H         2.0411986443        0.7430389562       18.3656638514
  O        14.7888500059        1.6782176901       24.6264146960
  H        15.4039895746        2.0878433647       23.9921272873
  H        14.1955632248        1.1554022874       23.9874155083
  O         7.8422345225       -4.2573971601       15.0169044571
  H         8.3405342704       -4.6394582778       14.2530648618
  H         7.3382789972       -3.5255799188       14.4939382789
  O         5.1740920401        2.2161714223       26.0359087857
  H         5.8921909334        1.8693984165       26.5522964668
  H         4.4688348443        2.3978427406       26.8016426657
  O         3.1243765969       -1.7349510143       19.9296506083
  H         2.4936483956       -1.0161139447       19.8593820905
  H         4.0120301416       -1.2786615211       19.9543420069
  O         3.0626922188       -6.5958794926       24.0154060463
  H         2.4290218403       -6.0364790693       23.5252967847
  H         2.5502275797       -7.0126511550       24.7806376592
  O         8.8946307619        3.0743478948       11.7825465599
  H         9.4098611578        2.4549591300       11.2739876721
  H         8.9912889482        4.0204177623       11.4093018799
  O         1.1316496300        4.4548724584       25.1251410716
  H         1.4433474625        3.5279338060       24.9292904494
  H         0.8475322698        4.5460708333       26.0819058663
  O         9.3315813697       -0.4185371863       28.2909839522
  H        10.1496518652       -0.4686006597       27.7798812404
  H         9.3955154594       -1.2146673649       28.8804398676
  O         0.6242775916       -8.3997496592       15.6693123784
  H         0.4668446199       -7.5089524861       16.0189811809
  H        -0.0833683048       -8.9692999185       16.1152984749
  O         0.6562666403        0.5621049724       22.8430900524
  H         1.2203149507        0.6347250610       22.0807493828
  H         0.6658803678       -0.4061205026       23.0888858100
  O         9.6100783360       -5.1766417550       12.9930292045
  H        10.1050981549       -5.7041521682       13.7242852853
  H        10.2396905246       -4.4721346357       12.7620917996
  O         7.0776157679      -11.3082678635       28.0931876040
  H         6.7690249122      -12.1022045954       28.6515700701
  H         7.8752970436      -11.6786801139       27.6341643924
  O         5.9178223198       -4.1750278499       18.1661237160
  H         5.2647899896       -3.5340395152       17.8078907590
  H         6.6913040527       -3.6333763799       18.4622247349
  O         0.2948931296       -7.4209503905       20.1351760272
  H        -0.1369642997       -7.2976053630       21.0587376520
  H        -0.0793193991       -6.7399770123       19.5539518790
  O        -0.3592321694      -10.9594300362       26.6286969793
  H        -0.7265848203      -10.5980299820       27.4598301880
  H         0.3517030018      -10.3019519928       26.4614390154
  O        -1.6784192881       -3.0148470263       24.0469408277
  H        -2.4735464386       -2.4015219727       24.2979937235
  H        -0.8253287088       -2.4866239039       24.1322309756
  O        -3.0812145349       -2.8202669093       29.4433876869
  H        -3.7267774351       -3.3278137120       28.8678310236
  H        -2.1969288534       -3.2393222459       29.2780927977
  O         7.3140815595       -9.1467991913       17.4184148777
  H         7.5441976569       -8.2559795834       17.1709266951
  H         7.4906425576       -9.7809360166       16.6924350945
  O        -0.5902080683       -0.9489762444       18.4997588156
  H        -1.3947408645       -0.4737121810       18.2673786005
  H         0.0090774978       -0.2150091675       18.7804132431
  O        10.6560162286       -5.2692432797       19.4299073313
  H        10.0048740878       -5.9164996656       19.8118251825
  H        10.8122557361       -4.5000652014       19.9876921699
  O        10.5645879490        2.6938874494       16.2966644511
  H         9.7467909699        2.8746442141       15.7428247601
  H        10.2614482562        2.1305760208       17.0746221404
  O         6.9115001162       -6.4345104884       22.0576722032
  H         6.4000223953       -6.6065512034       22.8439989503
  H         6.3229580801       -6.0489380019       21.3821696704
  O         8.0281865968       -3.0946285183       19.6010277739
  H         8.8665575975       -3.2984637694       19.0260870293
  H         8.2299795215       -3.4716993461       20.5217367209
  O         3.3986227017       -3.4190576133       27.1266897646
  H         3.7630483803       -3.0998629980       26.2381313367
  H         3.9351125137       -4.2873172513       27.2945001641
  O        10.3332021353       -9.3119213710       21.2415213279
  H        11.2431699196       -8.9600341520       20.9444967932
  H         9.9236593464       -9.6882724504       20.4461940246
  O        -3.7343299821       -1.2779982574       12.2840236136
  H        -4.5609687058       -1.2379250308       12.8339733686
  H        -3.2717987874       -0.3958225061       12.3497414122
  O         6.5136637695        4.7786195419       26.7568383691
  H         6.0101653427        5.3632308048       27.3522771285
  H         5.9033649419        4.0490361632       26.6400917876
  O         5.8261344400       -0.5518607357       29.8430669578
  H         5.1718273566       -1.3211303744       29.7162253090
  H         6.3287096267       -0.6641051354       30.6572272835
  O         4.6883215102        4.3642197530       17.3173266575
  H         5.5762099599        3.9477692181       17.5121048727
  H         4.1953161319        4.5172478443       18.1596420888
  O         9.2209115688        1.8379538336       18.9042254211
  H         8.6904577852        1.0772344334       19.1140346370
  H         8.5261390165        2.4920760587       18.7396081043
  O        15.5874507358        0.6526223960       17.0149892185
  H        15.5431821020        1.5957454695       16.6791970639
  H        16.3999328204        0.5164301285       17.4847289701
  O         7.4207371638       -0.4858534886       19.6417900375
  H         7.8095374298       -1.4230128399       19.6636297811
  H         7.0608777310       -0.4185302245       20.5687948211
  O        10.5029803235        0.6652456936       24.3741251457
  H        10.9041093930        1.1359717510       25.1418827410
  H        11.2750787912        0.6064767347       23.7139020123
  O         1.7294934371        2.4553736319       21.0886951354
  H         2.6686918118        2.5209642857       21.2978707427
  H         1.5447197613        3.2974158201       20.6992874951
  O        -5.9069973864       -0.5340521935       22.3742018563
  H        -5.2652076054       -0.9579022418       22.9034057084
  H        -6.0532428377        0.2854748176       22.9264910734
  O        11.5444129259       -4.3916040789       16.9397812848
  H        11.2478946478       -4.9167236434       17.7483991166
  H        12.2301490312       -3.8323057466       17.3927409305
  O         3.1872207837       -3.5251965442       22.2980890856
  H         3.1480246643       -2.9445163061       21.4992318705
  H         2.3761367123       -4.0796796241       22.3764170444
  O        -0.6292582638       -3.0372713640       20.8866427618
  H        -0.8143415481       -2.1924387759       20.3586175206
  H        -1.1211191990       -2.8093633208       21.7402334724
  O         3.1296342590        2.8126748466       28.2066880968
  H         3.6957413207        3.5473961787       28.6850211593
  H         2.3738095947        3.4112054855       27.8886966232
  O         3.0618614650        5.4416120822       19.2260980756
  H         3.6065790727        6.1002933899       19.7246149257
  H         2.3081273919        5.3441166111       19.8773687802
  O         0.7998690349       -5.2395152598       26.2528749806
  H         1.4494924226       -4.6209976961       26.6654705358
  H         0.1325326584       -5.3484856434       26.9859555427
  O         0.8453558637       -1.9964282145       24.1320350996
  H         1.1062723112       -2.9219152957       23.8920456840
  H         1.1680082838       -1.7606750899       25.0355820762
  O        -3.2009884248       -6.7593749873       23.2448265711
  H        -3.2022733147       -6.1299541257       24.0289036544
  H        -3.9283633483       -6.4366852978       22.7187729655
  O         6.2450979909        2.0408102185       23.7116541172
  H         5.8738811701        2.2335316061       24.5850599809
  H         7.1545515924        2.3161157265       23.8367080863
  O         4.7395682109       -2.9016916624       24.4793231344
  H         4.0120181525       -2.7737626806       23.7699098044
  H         5.0214042450       -3.7477179258       24.1967168366
  O        11.8739802002       -7.0734223892       10.2145905186
  H        10.8588406118       -6.9202677745       10.4266364962
  H        12.1706223571       -7.5197259185       10.9942069337
  O         1.0030735148       -4.8240633901       10.8946148366
  H         0.9359071726       -5.0905288599       11.7865948087
  H         0.2750194016       -5.3570147335       10.4677109915
  O         2.3547214014       -5.7848331572       16.7093365878
  H         2.5613859562       -6.3183905057       17.4939199575
  H         1.9386125224       -4.9828820554       17.0848725386
  N         8.6775575799       -3.6390373585       22.2181399598
  H         9.6027979151       -3.8726391292       22.4514366910
  H         8.4385972008       -2.8399776489       22.8309018495
  H         8.0587447143       -4.4162204674       22.4507583337
