     193
 CELL 12.4294 12.4294 12.4294 90.0 90.0 90.0 i =    66920, time =    33460.000, E =     -1096.5263062273
  O         2.2880293851       -2.6800533934       32.5757564106
  H         3.2270172058       -2.4446124004       32.3870815478
  H         1.9317231231       -1.7656452401       32.6593493159
  O         4.6886370697       -9.6766131930       29.2989788178
  H         5.6407498926       -9.9861451402       29.5340948897
  H         4.5638403429       -8.8562001659       29.8787980936
  O         7.3575052314       -5.2348147274       31.3007869608
  H         8.3152807415       -5.6158011400       31.4154967575
  H         6.8831763778       -5.6628711847       30.5857390159
  O         4.6051993093       -1.0747703753       32.2448137987
  H         4.7442646920       -0.3246477682       32.9456846799
  H         5.5629735287       -1.4376974828       32.0533746264
  O        -5.3676380950       -6.5952467185       27.3006817294
  H        -5.8167659401       -5.7787735250       27.6386793509
  H        -4.9215813430       -6.2185159587       26.4967455672
  O        12.0686249900       -5.3808783001       36.6103425374
  H        11.2378213474       -5.3097337733       36.0447404245
  H        11.7584935252       -5.6724544470       37.4842613336
  O         4.3228496278       -2.8898119301       22.4627891768
  H         3.6435795829       -2.1767059038       22.4852569175
  H         5.1341559648       -2.6509059749       21.9342497007
  O        11.0805994892        3.2495505395       33.4615049280
  H        10.1495265409        3.4152286165       33.6786320303
  H        11.1959621744        2.8621348573       32.5237709291
  O        -0.4085825107       -6.4511585863       20.4564644472
  H         0.0865193882       -5.8784526631       21.1148431872
  H        -0.7989997496       -7.2535969802       20.8898080309
  O         5.4594644803       -4.4893590444       24.2402527674
  H         4.9089976029       -4.0655137091       23.5125959190
  H         5.4831881108       -5.4828599722       23.9950299400
  O         6.3779947947       -7.1298418636       23.7840444317
  H         7.1348828461       -7.2358809173       24.3846867304
  H         5.8933808295       -7.9432842183       23.7820413368
  O        -1.1787296512        5.1692252558       26.6673448031
  H        -0.3466939740        4.6699471803       26.4429826198
  H        -1.8798808409        4.9850417868       25.9574407246
  O        -4.6774743810       -1.5449099009       34.2498953029
  H        -4.0295402755       -0.8017575192       34.3007686477
  H        -4.4980813250       -2.1821664149       35.0135877316
  O         3.3399820897       -4.3234973683       25.8463751907
  H         4.1762129878       -4.4286280775       25.2843684473
  H         3.7563467512       -3.8860222641       26.7423462162
  O         3.8495687691       -0.7716104969       25.6504082869
  H         3.8462231856        0.0584147483       26.2510356395
  H         4.6607625446       -0.6694033969       25.0919823368
  O        16.8006601088       -0.6087696339       29.5705027124
  H        17.1942888098        0.2285529224       29.2859191626
  H        16.8481397692       -0.7086338494       30.6111031821
  O         9.7000028532       -5.6607960725       22.5626252048
  H         9.6529168734       -6.3187091484       21.8423604717
  H         8.9553449738       -5.0820427596       22.4071420488
  O         6.5156838402        2.8958298092       32.3775220412
  H         6.9655124578        2.4107829787       31.6201533163
  H         5.9937964879        2.2447000820       33.0043356152
  O         4.8657516608       -2.4023143059       27.6229386381
  H         4.5776793458       -1.7862465708       26.8909144929
  H         4.6351743454       -1.7499843140       28.3821289899
  O         5.0952748501       -7.7495466424       30.8614753989
  H         4.6544093489       -7.0984964688       31.4833793030
  H         5.7330032745       -8.2718824804       31.3444069492
  O        11.8408028261        2.4079912892       18.4748409584
  H        11.6540509444        1.6624833894       17.9036312854
  H        11.5160214493        3.2036175581       17.9700422748
  O         2.6346403215        1.9248077056       31.6139126770
  H         3.5280217077        2.0277966974       31.2750479564
  H         2.1082166370        2.6776623561       31.2048112072
  O         9.3460875627        0.7402974914       34.2176421202
  H         9.2207714907        1.6511092257       34.5484663314
  H        10.2938948793        0.6299688587       34.3643515000
  O         2.9112854899       -9.8321942599       22.9631482875
  H         2.6875137078       -8.8993451646       22.7836319210
  H         2.0935102820      -10.2654881972       22.6989413011
  O         1.1788057083       -0.8141688660       28.3616969307
  H         1.9194578457       -0.2136000401       28.3791517283
  H         1.4763959577       -1.6900780390       28.7516067391
  O        10.0202969414       -5.7218121340       18.5548666102
  H        10.7420187815       -6.0254758884       19.1224533873
  H        10.4072528924       -4.7708337977       18.2903365532
  O         7.9438188053       -9.5938162195       36.9094535915
  H         7.0396647155       -9.8838168075       36.7643921583
  H         8.5412109112      -10.3676460112       36.9704782597
  O         7.8619924428       -3.4555770770       23.9754538001
  H         6.9470028215       -3.7954914022       24.1339439869
  H         8.3081461633       -3.2637767572       24.8219675546
  O         3.2376211870       -7.0672664739       25.3164593840
  H         3.9691559396       -7.5419420128       25.6989229327
  H         3.2783310969       -6.1006777758       25.6574413886
  O         0.8552667024      -12.5767938868       32.3342277638
  H         0.7933144123      -12.0935431822       33.2228236957
  H         1.4180473039      -11.9576497929       31.7938592595
  O        -1.4822036978       -3.0762099156       30.2279917282
  H        -1.5841805042       -2.3412860449       30.9592406520
  H        -0.4805665405       -3.0305050040       30.0514367510
  O        -1.2654699745       -1.0510676668       35.3468723690
  H        -0.3254271151       -0.7700385585       35.3051780301
  H        -1.4336141701       -0.9183828060       36.3018221604
  O         9.0338974101       -7.2320200142       25.1518693112
  H         9.2954732724       -6.7123106852       24.3768343712
  H         8.8498387174       -8.1698432849       24.7388746404
  O         1.8786694810       -1.0610559864       22.8831071303
  H         1.5282952339       -1.9320372040       23.2066913697
  H         2.2761983697       -0.6682937398       23.6915412647
  O        13.4651506839       -3.1695061230       24.5764606406
  H        12.7238155217       -3.8230410012       24.7037980381
  H        14.2925058135       -3.4888590367       25.0902346684
  O        12.6689916758        1.6691247016       22.4636664321
  H        12.0702354652        2.3873363544       22.0368429336
  H        12.3273974912        1.5702526086       23.3643122164
  O         8.4800404778       -9.1234134119       28.0596782135
  H         9.2133290478       -8.5794476468       28.4680756195
  H         7.9654267078       -8.4857743423       27.4780253273
  O         9.7431256932       -2.8611631056       25.8511196184
  H        10.5775555544       -2.3248777690       25.7923694370
  H         9.9041043898       -3.4953588260       26.6864893679
  O         6.8560137471       -5.1265261233       34.1422634271
  H         6.7931349998       -5.3878725346       33.2151382293
  H         6.9083852703       -5.9866219419       34.5880409001
  O        13.3992555221       -8.9764988476       26.4366779972
  H        13.8813114311       -8.5910633258       25.6727604832
  H        12.9212291816       -9.7861962071       26.0488739111
  O        -3.8135329798       -0.5057070979       18.2447572741
  H        -4.3289188877       -1.3296164887       18.3463306011
  H        -3.3700749985       -0.5565319402       19.1431825445
  O         8.5723672024        3.8718955599       34.1554604323
  H         8.2342262218        3.6875349387       35.0269872725
  H         7.8878203136        3.4389175226       33.5379067640
  O         8.3337715626       -0.4528309573       38.0121593678
  H         8.5487215423       -1.4093632207       38.2012980160
  H         8.8143219759        0.0653923369       38.6676994763
  O         5.3428106742        2.8580700763       24.2200324590
  H         4.5482591059        2.6411163340       23.7474568857
  H         5.1710780188        3.0553593375       25.1471531210
  O        11.9949064374        1.3773206765       25.0408874447
  H        12.3206286306        0.5114352615       25.3964215924
  H        11.1644063939        1.3866856910       25.5598568866
  O        18.5563921387       -0.2990187251       23.8222424268
  H        19.2293989130       -0.0702698410       24.4866545697
  H        18.8780826794       -1.0538904463       23.2804935671
  O         9.9815272024        1.5021014436       27.0141232017
  H         9.5481421269        2.3802888075       27.2611243625
  H        10.5637597836        1.2401287471       27.7108379184
  O        10.6888515725       -1.3148432666       32.4221590176
  H        10.8492659769       -1.6469421445       33.3132909365
  H        11.4300823292       -0.6458390367       32.3450243214
  O         3.1813410689        1.5967640537       27.1010044655
  H         3.5235567285        1.9596820083       27.9731288737
  H         2.4190282568        2.2010067498       26.8618684502
  O        -1.1443545103        0.3886136306       29.3178451799
  H        -0.3555804765       -0.1807239005       29.1379340869
  H        -1.8845751106       -0.1499992729       29.6581353194
  O        13.9197915695       -4.7379563333       21.9569883068
  H        13.8707014365       -4.3761331169       22.8601532251
  H        14.4496909580       -4.2056363515       21.2956320454
  O         5.8023037916       -4.8601583547       28.7058884774
  H         5.7905397383       -3.9100907562       28.6495128798
  H         4.8776539723       -5.2300521693       28.8304455281
  O        -0.1187428576       -1.1568794427       25.9949645497
  H         0.2431170895       -1.1737857185       26.9018604617
  H         0.3567980822       -1.7600585583       25.4014124009
  O         5.0879868491        1.0724133290       34.1791247255
  H         5.5305036068        0.8175511228       34.9768124182
  H         4.2465196022        1.4534838874       34.5239939635
  O         5.3230959317        4.0148162199       26.5530916524
  H         5.8547459526        4.8308437051       26.7416784377
  H         5.1770839224        3.6775817300       27.4276755959
  O         3.7528023602       -5.9363498621       32.5719622134
  H         4.2884114652       -5.3005664766       33.1040086488
  H         3.4767829893       -6.5054225608       33.3136530865
  O         1.3301477486       -2.9837060790       29.9060577014
  H         1.8592694454       -3.8531062581       29.7208616754
  H         1.4682944211       -2.7689061865       30.8550730440
  O        -1.7318792575       -7.8958776650       29.2074453090
  H        -1.8565234859       -7.0197940387       29.7362419604
  H        -1.4095599534       -7.6839037168       28.3161929562
  O         7.2288506909        1.7459546300       29.9347338462
  H         7.7271563840        0.8757938533       30.1677984847
  H         7.7737377739        2.2934471021       29.3128770968
  O         7.0904260336       -2.5238135051       31.7920474507
  H         7.1487235691       -3.4819775448       31.5059403182
  H         7.5049286468       -2.4500287884       32.6981994500
  O        13.2611553817       -7.0514123504       17.7784492383
  H        12.9462605550       -7.3456218615       18.6885901754
  H        12.6738296409       -7.5232211677       17.1093944162
  O         2.8803906099       -5.3342373041       17.3371229900
  H         3.2331560146       -5.0937198046       18.2036693647
  H         2.0552107607       -5.8569186914       17.5500674599
  O         2.8907649779       -7.1416702806       22.4601110310
  H         3.1025731243       -6.9827997747       23.3920393102
  H         2.1596630607       -6.5458578430       22.2637335457
  N        10.1155228517       -4.4545888918       27.8954826054
  H        10.8230957975       -5.1554945157       27.8141052654
  H        10.4020445694       -3.8453954320       28.6485427324
  H         9.2182387232       -4.8865841299       28.2165931644
