     193
 CELL 12.4294 12.4294 12.4294 90.0 90.0 90.0 i =    36520, time =    18260.000, E =     -1096.5340074999
  O        -2.5477376465        0.6053855182       16.8290447077
  H        -2.1853465160        0.1660972515       16.0736655380
  H        -3.4732649753        0.8937291369       16.5000162540
  O         0.5396225588       -7.9570703599       11.7590103910
  H         1.2781205722       -8.6537908758       11.8438649087
  H         0.5825436363       -7.5991298896       12.6931706010
  O         0.6638258659       -6.8067391305       14.1369833286
  H         0.9142245460       -7.3339494798       14.9655335367
  H        -0.2680630127       -6.4830739050       14.3418576864
  O        -1.2262633549       -0.2712475505       14.7646695191
  H        -0.4177816669        0.3286738311       14.7902260502
  H        -1.1011917830       -1.1494193125       14.3327095136
  O       -11.2913057190       -3.5155072464       10.2658270743
  H       -12.2255246803       -3.2951839280       10.1906149190
  H       -10.9663794955       -3.3058213587        9.3482236313
  O         4.5887170427       -5.2800103905       18.7996928819
  H         4.4008204304       -4.8489627393       17.9198961251
  H         4.2757762787       -6.2077818663       18.7393485357
  O        -2.5852214145       -0.9895069493        6.7323346480
  H        -2.8510705240       -0.3946972196        7.5135009781
  H        -2.5474776449       -0.3051857953        6.0337342815
  O         4.6482054164        4.6124139634       15.4256554510
  H         3.7200018003        4.6261623119       15.7886877320
  H         4.6358862744        4.1095655249       14.6231811284
  O        -3.2546963608       -8.0865744445        3.1854743481
  H        -2.4599482482       -8.5064343599        3.5810875616
  H        -3.6602067554       -7.5144567537        3.8522290537
  O        -0.0226227889       -1.5997512177        6.1445979995
  H        -0.9910656864       -1.5795346862        6.3771416487
  H        -0.0060713258       -2.0698953839        5.2452643233
  O         1.2631187530       -5.2599518498        5.6772718487
  H         1.6877445612       -4.7811538115        6.4234803910
  H         0.7073355501       -5.8872613395        6.1637917041
  O        -9.5212084324        4.8219940082        7.0991556225
  H        -9.0478554724        3.9406663325        7.0582666330
  H        -9.3567364853        5.2872218055        7.9095734865
  O        -9.8960970756       -2.0742392637       15.0292930377
  H        -9.8422357643       -1.1971992306       15.5070200684
  H        -9.9167575506       -1.8816115228       14.0598235540
  O        -1.6582206312       -4.2355744904        7.7625029321
  H        -1.0734147505       -3.5585007797        8.0941464130
  H        -2.5539906357       -3.9221193173        7.9410051121
  O        -0.9424546812        1.4420190540        9.2999017357
  H        -1.2798443297        2.0647296869       10.0581453585
  H        -0.8599398012        2.0952661280        8.5222017740
  O         8.0119981642       -0.4544763133       12.0007271853
  H         8.4278331535       -0.2795465121       11.0830258698
  H         8.4848822761       -1.1492405989       12.4274243954
  O         4.3906181405       -3.9998868862        3.6786464681
  H         4.3712435299       -4.8438776855        3.1842936400
  H         3.7583060223       -3.3211274356        3.2910928625
  O         0.7235601981        1.6945765719       14.6658879794
  H         1.4835896291        1.2199585398       15.1489396621
  H         0.2426931625        2.2137548435       15.3012384253
  O         0.9592645991       -0.5547486310        9.0630032958
  H         0.5165527729        0.3725825734        9.0025925171
  H         1.4491439060       -0.6033834986        9.9161478921
  O        -1.7488087217       -5.9306279528       14.3618709351
  H        -1.9434891214       -5.0023032838       14.7589659456
  H        -2.3335128584       -6.6032598046       14.7411395628
  O         4.0739377820        3.4995012462        0.5916478963
  H         4.8480281902        3.1232046699       -0.0283019790
  H         4.0202901850        4.4062114162        0.1943250609
  O        -3.1221277027        1.5186501754       13.1496797824
  H        -3.7393925149        0.9623752093       12.6378015132
  H        -2.3830794565        0.9280384221       13.3861760481
  O         5.4311519630        0.1037615628       15.2352859041
  H         6.3129835075        0.6233851615       15.3343481524
  H         5.5993281535       -0.6357356557       15.8752598442
  O        -4.2136804031       -7.2054705586        5.7684589268
  H        -4.2426171966       -6.4005836690        6.2585464732
  H        -3.8106264799       -7.9841855006        6.3158087387
  O        -5.0352121950        2.8254480417        8.7063439761
  H        -5.8437718805        2.5439905807        8.1191801085
  H        -5.3530209070        2.9076139612        9.6481587080
  O         5.9557394262       -5.9096905930        1.6188374302
  H         5.5000467011       -6.5945873067        2.2069644219
  H         5.6443950157       -6.0829106507        0.7054432517
  O         2.6322475114      -12.0814120204       16.1733165192
  H         2.3901023694      -12.0191679369       17.1072014576
  H         3.6261542153      -11.9703515130       15.9967300842
  O         1.9717972918       -3.2731370063        7.5244296174
  H         1.2426788754       -2.6849459481        7.3050389949
  H         2.7837531264       -2.6211555022        7.4870442068
  O        -4.7088953328       -5.5155772210        9.6841120908
  H        -4.6601058563       -4.8616720190       10.4601889884
  H        -3.8801237536       -6.1007726422        9.6765489732
  O        -4.7947581127      -10.6881597845       15.6244176506
  H        -5.0000710602      -10.0347077705       16.3253550590
  H        -4.3596691010      -10.1657096429       14.9408760094
  O        -4.9839504088       -3.4966853261       11.4369197063
  H        -4.4112778785       -3.4337520716       12.1776264547
  H        -5.8530555068       -3.2478030431       11.7286450381
  O        -6.6382097635       -1.9115639007       17.2545182539
  H        -7.1752269905       -2.6310774331       16.8607051656
  H        -5.6795009733       -2.2731589828       17.2383575426
  O         0.7381896305       -9.2583056157        6.3383572153
  H         1.2727187008       -8.7287700226        6.9920132404
  H         1.2375282344      -10.1606420134        6.2950069855
  O        -3.2678306716        0.4066887924        9.2573469410
  H        -3.8959173686        1.1464541590        9.1043028783
  H        -2.3153075788        0.7111994873        9.1801777815
  O         7.2352885670       -4.4939324911        6.8120367724
  H         6.3302839692       -4.8175779514        6.6992156301
  H         7.4160182848       -4.5386715565        7.8392567852
  O         6.3402113195        3.5589078046        4.7712400621
  H         5.8663096024        3.9002974379        3.9200063023
  H         6.7565286852        4.4311530639        5.1937075261
  O         2.7160086895       -5.0477520525       13.5330195434
  H         1.9552089170       -5.5954206367       13.8075864881
  H         2.4035259483       -4.1104303122       13.6996137694
  O         4.2888358717       -1.9692878146        7.4097198560
  H         4.9550267549       -1.7573577531        6.6815492043
  H         4.7749259854       -2.5889289833        8.0939569608
  O         0.0783361359       -3.3715067921       16.3494282534
  H         0.8671635129       -3.0432570012       15.8885029395
  H         0.4548562067       -4.0592190152       17.0439558318
  O         5.3807847128       -6.8559486052        8.9794188712
  H         6.3215323722       -6.7325506847        9.1572208719
  H         5.4096745583       -7.7215251946        8.5298538902
  O        -7.5996363989       -3.4764891734       -0.1571012429
  H        -7.6038212493       -3.9516605700        0.6751685109
  H        -7.9075771410       -2.5791281163        0.0778586196
  O         2.1193863249        4.9860640989       16.4761622609
  H         2.0675507670        5.8568796415       17.0018035721
  H         1.5614176161        4.4012467518       17.0237432292
  O         1.8424518184        0.5973510957       18.5653751867
  H         1.1780226872       -0.1196937092       18.6443700438
  H         2.3998512708        0.5865391863       19.4438245018
  O        -2.6755933025        5.3970223595        9.4348573957
  H        -1.7905272497        5.8279124315        9.4388737064
  H        -2.5537841252        4.7012561838       10.1118494610
  O         5.1037871380        2.7604994181        7.1263759385
  H         4.5295539825        1.9666830456        7.3682158305
  H         5.5396406022        2.8145674203        6.2543225446
  O        10.1205798980        3.4635746386        7.2504411042
  H         9.4386756952        3.5785475639        7.9225093976
  H        10.8412740283        4.0149238474        7.4705274341
  O         3.6011062133        0.5652468420        7.9783734499
  H         3.8895936042       -0.3935331076        8.0336469157
  H         3.2932483910        0.7076497074        8.9274741065
  O         5.5810724543        0.4596023635       12.6210138055
  H         5.4160014347        0.1009698927       13.5227102979
  H         6.4166161750       -0.0419326796       12.3854919265
  O        -1.6147155776        3.1410092816       10.9876547878
  H        -0.8504642281        3.6831171835       11.3821716564
  H        -2.1987157247        2.7345691701       11.7033940735
  O        -9.4519994669        0.4374159138       10.7289772818
  H        -8.5862571625        0.3309530113       11.0959022114
  H        -9.9928566514        1.0120917841       11.2552612735
  O         8.3245003231       -2.7150775652        5.1192682763
  H         7.7767593491       -3.3181941178        5.7779541211
  H         8.6484024967       -2.0090985515        5.7387087223
  O        -1.2084773019       -2.2203914262       10.1356954669
  H        -0.7873446390       -1.4171562521        9.8599366242
  H        -2.0918188298       -2.3484467041        9.6998192556
  O        -3.6379308947       -2.4411383462        9.3879099592
  H        -3.8433833264       -1.4922079653        9.2884398845
  H        -4.1915651717       -2.8097952918       10.1693213428
  O        -1.1309794702        2.8250448273       16.6352950569
  H        -0.6962196565        3.1506299844       17.4722140088
  H        -1.6896719967        2.0385915180       16.8666379425
  O         1.5203227469        6.0550499187        9.7403024509
  H         1.4008600691        7.0045243683       10.0437742483
  H         1.1369460294        5.4578113707       10.4568539780
  O        -2.4269148307       -3.4681949896       15.4342150160
  H        -1.5671960321       -3.4167051429       15.9929297891
  H        -3.2030842777       -3.3694887061       16.0510373323
  O        -2.7711504836       -2.5900809955       12.9899055280
  H        -1.9582941872       -2.7592838277       12.4346336758
  H        -2.5368258982       -2.8202939491       13.9081628681
  O        -8.2047386769       -6.4679354363       11.6731634546
  H        -8.8707316503       -5.7551131267       11.7070751536
  H        -7.9261649019       -6.6611814708       10.7574174245
  O         2.0669885186        2.2628463147       12.3124820331
  H         1.4755226698        2.0039957346       13.0612050136
  H         2.9046988607        2.6951854757       12.7932231350
  O         1.8928982104       -1.8901532251       12.2550024171
  H         2.5472235447       -1.2076138323       11.9945061189
  H         1.7891973036       -2.5702439250       11.5426395754
  O         6.3980060519       -9.6133019646       -0.8974027372
  H         6.9629541081       -9.0422603958       -0.3883059423
  H         6.1620519306      -10.5036255869       -0.3579550318
  O        -4.3520796678       -7.4452244539        0.5601910942
  H        -5.1011111795       -6.9112614077        0.9446252059
  H        -3.8856131345       -7.5789433621        1.4560827283
  O        -0.2975240879       -6.7336427277        7.5076785640
  H         0.3756623477       -6.6914366275        8.2414370835
  H        -0.7742871796       -5.8620499349        7.5975365419
  N         4.7678407107       -3.9396220461        9.1264000691
  H         4.3193160887       -3.9119935634       10.0361018259
  H         4.1833411606       -4.5600719560        8.5677463995
  H         5.6725075662       -4.4062012741        9.2328851719
