     193
 CELL 12.4294 12.4294 12.4294 90.0 90.0 90.0 i =    78920, time =    39460.000, E =     -1096.5056351855
  O         5.5946106735       -1.5771632559       38.7497233470
  H         4.8537240053       -0.9748099911       38.4787972572
  H         5.6231844938       -1.5663389066       39.7251721226
  O         5.6008434094       -7.9614425086       36.4752655461
  H         6.4516985810       -8.4272336398       36.6162553308
  H         5.9052281468       -7.0509200916       36.4822375954
  O        10.3064021474       -4.4354003391       36.7026050408
  H        11.2662989800       -4.4324018168       37.0131013166
  H         9.9225671351       -5.1339560820       37.1776922963
  O         7.8041693302       -0.3028541005       37.8489057599
  H         7.1018094080       -0.8389608207       38.2846917757
  H         7.5878206892        0.6342670608       37.9344085572
  O        -3.9711148653       -6.0153695537       33.5683464237
  H        -4.2354142932       -5.3286035083       34.1681301731
  H        -3.6702196689       -5.4997085388       32.7498912964
  O        14.3343411340       -3.7738793218       45.4326712690
  H        13.7196896318       -3.9019715046       44.6988756513
  H        14.9143752422       -4.5835621115       45.3523070050
  O         5.7566284665       -1.2003178086       28.9025017874
  H         5.0464989545       -0.5853164776       29.1540163688
  H         6.5721435668       -1.0557373418       29.4505343997
  O        13.5989909052        3.5425696691       40.4241973140
  H        13.0142708458        4.3775449750       40.4113700481
  H        13.9633669392        3.2562555944       39.5713521222
  O         2.9158762480       -6.5439424140       30.0869137249
  H         3.5392963615       -6.7005257627       29.3019578955
  H         2.1647464333       -7.1510865093       30.0364693649
  O         9.6486055003       -3.2185668204       28.8034280517
  H         9.7068566616       -2.5823957277       28.1157366178
  H         9.1532524974       -3.8932495446       28.3023686678
  O         9.2962864133       -4.7621269184       31.3825667766
  H         9.9160585123       -5.1986853185       30.7497249047
  H         8.5656419117       -4.4678220209       30.8220063044
  O         0.7565074692        5.3379901201       33.6260097193
  H         1.5427002253        5.9141576871       33.2344842276
  H         0.8548299601        4.4196747501       33.1940909363
  O        -2.2058268804        0.4835387888       41.5872098135
  H        -1.5009341670        0.8404000673       40.9768238849
  H        -1.7870074513       -0.3023804095       42.0740991957
  O         6.7091197673       -2.3826998419       33.0327370482
  H         7.3009367616       -2.0993877975       32.2474907539
  H         6.0243825413       -1.6681860499       33.1821150863
  O         6.4666663073        1.7395826391       34.1197989013
  H         5.6959400198        2.3618367298       33.8557521212
  H         7.1766148515        1.9722531220       33.4459413932
  O        16.7604905062       -2.3451526831       35.7002978940
  H        17.0418131306       -2.1804917047       36.6372507407
  H        15.7903543434       -2.1397102410       35.7098862869
  O        13.0544213796       -4.8324163600       30.9518150147
  H        13.8973258872       -4.9189529615       30.4441477782
  H        12.4220780474       -5.5421158456       30.7585780242
  O         9.4841455982        3.0220912469       38.7154864778
  H         8.8751402174        2.8551883566       37.9990553243
  H         9.0721954116        2.6167577886       39.5769889298
  O         4.9491045840       -0.3791710089       33.6416676554
  H         5.5346472919        0.4441956294       33.6896930929
  H         4.8320939652       -0.5690547959       34.5998365323
  O         9.6570760649       -6.6870935372       38.5720615196
  H         9.1440731947       -6.3995238172       39.3742479768
  H         9.4820771404       -7.6576858598       38.5110428836
  O        13.6873281163        2.8365687807       25.1385307976
  H        14.0295789924        2.1855439205       24.4896122178
  H        13.3403941036        3.5942169100       24.5883883548
  O         3.8165951600        3.3621590662       38.3764917119
  H         4.5000229141        3.4912985023       37.6958292574
  H         2.8728273423        3.3455966692       38.0323971402
  O        13.1638731888       -0.3487618566       38.4130218904
  H        12.5398748399        0.3307919492       38.7870346810
  H        13.3856649676       -1.0411027171       39.1052064121
  O         6.0163300574       -9.1537930809       29.7256147980
  H         5.6825699017       -8.5756684806       29.0034655454
  H         5.1165270913       -9.3261781099       30.1277901017
  O         2.9832112876        1.3200488032       35.2383509065
  H         3.4220078725        2.1891975280       34.9675763875
  H         3.3619301111        0.9181073166       36.1314924675
  O        13.1087994171       -5.0855992319       24.9858749218
  H        13.5316886641       -4.9705802718       25.8391699668
  H        13.6838472653       -4.5486455646       24.3276650042
  O        10.9958452229       -9.3956301722       43.3263245262
  H        10.9108895362       -9.9718666065       42.5471532140
  H        10.2934727906       -9.8308098326       43.9063390873
  O        11.7324956729       -1.8817978599       29.9824133807
  H        11.0790121260       -2.5836290411       29.8924359879
  H        11.8397936520       -1.7710418963       31.0187301917
  O         5.3703467508       -4.5500529210       32.6107746737
  H         6.0318644555       -5.2515874800       32.4599475579
  H         5.8105079221       -3.8467348298       33.0768764710
  O         3.3706953435      -12.0494063430       37.8957848497
  H         2.3199911746      -12.2533655936       38.0105580264
  H         3.5096233360      -11.1920032260       38.3443988873
  O         1.6594372206       -2.9517701286       35.7958375877
  H         0.8487082608       -2.3596519948       35.8220104722
  H         1.6482528527       -3.3499471691       34.8767870757
  O         1.5196793371       -2.0307872785       40.8827369265
  H         2.1040705605       -1.3437885322       41.2361971746
  H         0.7124446606       -2.0085321028       41.4863057056
  O        11.0010612893       -6.4866465458       30.2045492883
  H        11.3152339817       -6.4896025126       29.2925693314
  H        10.9052969731       -7.3393600881       30.6528917573
  O         3.6030261362        0.2362739982       29.2179869337
  H         3.4596519232       -0.2090275595       30.1243480397
  H         3.3683184482        1.1579972947       29.4140232128
  O        15.4759359055       -0.9304556445       31.9302173342
  H        15.1875327398       -1.8699374327       32.0084239976
  H        16.3653615561       -0.8614476912       32.4339004940
  O        15.4095276776        2.6471265738       30.1113330793
  H        15.0170937350        3.1472443465       29.3316561624
  H        15.1046065036        3.1347751316       30.8543681931
  O         9.5791067428       -7.9291698597       35.1743409337
  H        10.4731630164       -7.7790737090       35.4320189834
  H         9.3382085729       -7.1591507442       34.5250877324
  O        11.9278359048       -1.5259871249       32.4281963104
  H        12.5434800060       -0.9196420814       32.9369530386
  H        11.8901970207       -2.3237928398       33.0983564810
  O        12.0388328075       -6.7306367467       40.2398891221
  H        12.5315997724       -5.8991081196       40.0367133014
  H        11.2597893447       -6.9043673876       39.6385717714
  O        15.7344826685       -6.1755089770       32.7193782897
  H        16.4819355070       -5.5908830002       32.8522225525
  H        15.7196735708       -6.4405580527       31.8084672571
  O        -3.0824987368       -1.3906938987       23.1497279189
  H        -3.5254532220       -0.9415330733       23.9181882617
  H        -2.1297348956       -1.1866139100       23.2896422578
  O        11.6741661785        1.6240069487       39.6317253217
  H        12.4105779283        2.1696518475       39.9818688357
  H        11.0475183607        2.1883537715       39.0606600214
  O         9.2297112427       -0.4810545335       45.2343658004
  H        10.1316773269       -1.0031681659       45.0608786055
  H         9.0594052288       -0.6817513854       46.2119784253
  O         6.4587783910        5.1859480695       32.2121476542
  H         6.7212889804        4.5188588109       31.5475745194
  H         7.3543683499        5.4288311511       32.6101390553
  O        13.5862495253        3.0362465228       32.2781379109
  H        13.4926127423        2.1485253328       32.7692745120
  H        12.8058738735        3.0728862616       31.6527781764
  O        20.3844758045       -1.4389953089       30.4748209549
  H        20.8347439396       -0.8780132535       31.1531522640
  H        21.1202309777       -1.8099550421       29.9678591512
  O        11.3805767228        1.7336367197       35.7649957628
  H        11.4526579475        1.1886710128       36.6019699942
  H        11.5412485598        2.6090162704       36.1616515741
  O        13.8319096972       -4.7753945524       40.0457636744
  H        14.7643152589       -5.1263538585       39.9204764219
  H        13.9877475588       -3.7404779097       40.0789376206
  O         4.1532217660        3.6804618414       34.1694883604
  H         4.5500578629        4.2440078769       34.8663249913
  H         3.6880954730        4.2452679217       33.5460898757
  O        -0.3904160042       -1.0444195157       35.9218690056
  H        -0.1385443566       -0.2642026573       35.4138186015
  H        -0.1567849324       -0.9580607694       36.9074752834
  O        16.8625804863       -3.4820861326       29.9899382118
  H        17.2837186180       -3.5236647259       30.9249052736
  H        17.3389119295       -2.7066001686       29.5599022273
  O         7.7615534865       -3.7228270483       35.0509421169
  H         7.4089430388       -3.1226196147       34.3895108934
  H         8.6010138881       -3.2041405033       35.2942134998
  O         1.2664643331        0.5609012987       33.4478904739
  H         1.8164621075        0.8034442779       34.2740043616
  H         1.9617483038        0.2903726944       32.8131327144
  O         8.0159297721        1.7202399439       40.5644765417
  H         8.6125798223        1.0457906062       40.9431162389
  H         7.4265585781        1.9860584916       41.2915698681
  O         8.9090923346        2.3453835730       32.8958329481
  H         9.2844848602        1.4276032431       33.1159599211
  H         9.1303207681        3.0399276277       33.6020571439
  O         7.9673762009       -5.2724992645       40.3827952929
  H         7.1777683437       -4.8794125587       39.9744183488
  H         7.5698981558       -5.5429410518       41.2224472135
  O         4.1499931682       -6.7325276768       39.9255455691
  H         4.5860296456       -6.0242069323       39.5474261668
  H         4.0449296345       -7.4856642628       39.2378237327
  O         0.2412451795       -7.5439783790       36.1978394009
  H         0.5313818850       -6.6892773715       36.6024803539
  H         0.5933863807       -7.4150592683       35.2383516060
  O         7.8178865120        2.9037521523       36.3413604465
  H         7.5566879831        2.1631186177       35.7906419600
  H         8.5090627609        3.4415460688       35.8904551962
  O         9.8179594783       -2.1974260376       38.4789844658
  H         9.9576994539       -2.8506192835       37.6674433203
  H         9.3428764832       -1.4195449099       38.1305142482
  O        19.3371180907       -5.5167925929       24.5433999556
  H        19.6805463574       -4.8634829407       23.8354227958
  H        20.1903588076       -5.9467115465       24.8344959932
  O         5.6158105922       -4.3826342660       26.6022275830
  H         5.9776872902       -4.7939598457       25.7677621933
  H         5.4687046482       -3.3983076502       26.3440863505
  O         6.0218346991       -5.8410785077       29.7696264611
  H         6.2310458755       -6.3195535282       30.5957176634
  H         5.2900880361       -5.1393042355       29.8972532272
  N        11.3650905986       -3.7624433441       33.6100198445
  H        11.9039929707       -4.6198342989       33.3708788959
  H        11.1092204524       -3.7677021866       34.5895793766
  H        10.4656235196       -3.9982870150       33.1598356769
