     193
 CELL 12.4294 12.4294 12.4294 90.0 90.0 90.0 i =    48520, time =    24260.000, E =     -1096.5240877769
  O        -1.2453664049       -0.2361094418       22.9484843418
  H        -0.4964262933       -0.3030123712       22.3349979050
  H        -1.5401437052        0.7305550574       22.9979581341
  O         3.3347614710       -8.4664375384       18.4333429708
  H         3.8806147405       -9.2743721244       18.7306714818
  H         3.2929216613       -7.9017752977       19.2410426228
  O         2.3596313283       -6.9578348373       20.6256437446
  H         1.8358295110       -7.6726912968       21.0150171586
  H         1.6387556331       -6.4438222142       20.1320492187
  O         1.2694128208       -0.5162161032       21.5815514127
  H         1.7535804918        0.3509487298       21.4247181069
  H         0.7269815304       -0.6799185658       20.8080467010
  O        -8.3562818367       -4.5370812664       17.6032649619
  H        -9.1241508412       -4.1030052784       18.1058567110
  H        -8.2276361190       -3.9251281239       16.8367591883
  O         7.4208828581       -6.1784958238       25.4942920597
  H         7.0557879890       -5.7842081303       24.6584369970
  H         6.6676694815       -6.6067122508       25.9239349527
  O        -0.9584244767       -1.3918519527       12.8927169988
  H        -1.5072376773       -0.8358670564       13.4388590034
  H        -1.0214373147       -0.9804027772       11.9129331607
  O         6.2835590292        4.1811656999       22.7601863178
  H         5.9351072014        5.1457132783       22.5714481967
  H         6.5165527244        3.5809611009       22.0031146449
  O        -2.7220469719       -6.2471783252        9.9187471701
  H        -2.0133405285       -6.9543134817       10.1181739647
  H        -3.4983030384       -6.6168414376       10.3852883892
  O         2.0203760742       -2.0354622228       13.5999150055
  H         1.0584708812       -1.6676268050       13.5809141735
  H         2.0591563535       -2.5362895810       12.7163341741
  O         3.1477658650       -4.6141595335       12.5736868111
  H         3.4613155360       -4.6165794059       13.5090648795
  H         2.2733735075       -5.0741874201       12.6158360330
  O        -6.6426770569        4.5898733489       14.4768030800
  H        -5.8508128978        4.4298761998       15.0638337068
  H        -7.3896072722        4.9553797090       15.1653967087
  O        -7.6578833449       -1.8421140309       21.7077962702
  H        -8.1537400416       -1.1480198044       22.2795325051
  H        -8.2816097200       -2.3673376602       21.2790972799
  O         0.1853759504       -3.8831850810       15.2881842937
  H         0.8914298564       -3.2529683471       14.9402225451
  H        -0.5817160118       -3.3114429551       15.5322395226
  O         0.2353586554        0.9909604305       16.2227184130
  H         0.3271324430        1.7278147412       16.9285384488
  H         0.6321048419        1.3570908274       15.4366466660
  O        10.9024998062        0.8603508603       20.0062068984
  H        10.5242583390        1.0517408727       19.0896727374
  H        11.4027663209        0.0034142944       19.9110581323
  O         6.5422434480       -3.1306688503       10.9910430488
  H         7.3275144252       -3.2104815988       10.3717970965
  H         5.9477359709       -2.6077272008       10.4166183954
  O         2.7000491394        1.6329101786       21.6216191285
  H         3.2526429508        1.3574688733       22.4727675079
  H         2.2888250880        2.4641497591       21.8802453851
  O         1.6653346110       -0.8480789595       17.4992964663
  H         1.1831232158       -0.1366864033       17.0024014158
  H         2.5935722151       -0.5432868283       17.6427826340
  O        -0.3358406996       -5.4722442427       20.4239350138
  H        -0.2937529507       -4.6190662195       20.9834458676
  H        -0.3697097501       -6.1253839122       21.1375990058
  O         7.2022857372        2.6304535689        8.3108903161
  H         7.7739167729        1.8296584930        8.1572577972
  H         7.4111614650        3.2900450769        7.6049835433
  O         0.0292810048        3.0870390971       20.9756383927
  H        -0.3406701581        2.2260314804       20.8279702223
  H        -0.3100016215        3.3369389332       21.8904833471
  O         7.2424191307        0.4578864876       23.4608787394
  H         7.7272211646        1.2981801559       23.6699428552
  H         7.7072439476       -0.1082796064       24.1506110237
  O        -0.3377909082       -7.1573938706       10.6037625253
  H        -0.2519539224       -6.4844521671       11.3305696605
  H         0.3080791903       -7.8628200351       10.8938086240
  O        -3.1247294480        1.2943792085       18.0144993047
  H        -2.9498979703        2.2266285821       18.1894064996
  H        -2.7943692625        1.2372381453       17.0793363067
  O         8.2849667064       -4.0973226499        9.0112884118
  H         8.9705819270       -4.7659972285        9.2753698156
  H         8.2451923967       -4.2301203571        8.0357118911
  O         4.3187906065      -11.8407651589       23.4837910071
  H         4.1474021533      -11.8194610664       24.4533938847
  H         5.2993460420      -11.8670403096       23.3605670122
  O         3.8273776711       -3.0944678518       15.4196096582
  H         3.1729344703       -2.4154484367       15.1309945243
  H         4.6824421753       -2.7309518826       14.9896104952
  O        -1.1365483645       -7.0629208578       15.7426395078
  H        -1.0821807352       -6.5043106989       16.5875182201
  H        -1.2892005498       -6.3551962169       15.1134296314
  O        -2.4381867033      -10.0749726651       22.9518125015
  H        -3.0141656179       -9.8143542289       23.6776737438
  H        -2.8298920383       -9.9083642102       22.0851821683
  O        -3.3824165460       -2.6859892980       18.6098667365
  H        -4.2053470921       -2.2193179266       18.7995388736
  H        -2.7041203559       -2.2739366983       19.1676981633
  O        -4.3422256942       -1.7101036039       25.0563585476
  H        -5.0948770469       -2.2496277665       24.5836472816
  H        -3.5638021430       -2.2991642767       24.8680532799
  O         4.2373495026       -8.6473077225       12.2057417641
  H         4.7534394351       -8.4904627150       13.0377740746
  H         4.8647001215       -8.4861550162       11.4617770362
  O        -2.0058178233        0.0238731265       14.8578829044
  H        -2.8541162197        0.5503366457       14.6705233441
  H        -1.3351692173        0.5919775769       15.2589537009
  O         9.7575784669       -4.9199244471       14.2931356138
  H         8.8459730578       -5.3221273358       14.0401220192
  H         9.5207488629       -4.1995633124       14.9198894362
  O         8.0320858524        3.4088857784       12.2311884524
  H         7.2942133857        3.6747514873       11.6472372403
  H         8.2409127402        4.2562583739       12.6892144987
  O         5.9855749738       -4.9285298406       19.3445941603
  H         5.7120996624       -4.7662289213       20.2504591100
  H         5.1954934001       -4.7939178111       18.7034707518
  O         6.6491480091       -2.2440668541       14.9055678674
  H         7.3319415965       -2.2024335781       14.1939067123
  H         6.9240546879       -2.9460183884       15.4528355026
  O         1.5650824066       -2.5413471299       23.3336804284
  H         1.5307687922       -1.7595740764       22.7058633530
  H         2.2637241445       -3.1203788164       22.9331734450
  O         8.3350393020       -8.3860783019       15.8227927980
  H         9.1555620672       -8.0243080597       15.4439668783
  H         8.4628267316       -9.3561700416       15.5852124422
  O        -5.7175231343       -1.3276222244        6.8034493549
  H        -6.2768599281       -1.6495652552        7.5151089232
  H        -5.2727036719       -0.5046411993        7.1156132839
  O         4.8017956665        7.1113541615       22.6225914601
  H         5.3213680636        7.8886725770       22.8126644144
  H         4.1089311311        7.1108612956       23.2858174078
  O         3.6316297444        0.2127402592       25.9948381574
  H         3.1450208257       -0.6555796546       25.9275077678
  H         4.4856477999        0.1029461145       26.5736451060
  O         1.4484271667        4.6947975211       14.7138732995
  H         2.1123413332        4.8702809364       15.4071714054
  H         0.5907505278        4.7915439061       15.2044652454
  O         8.2725145564        1.3745646575       14.3531556368
  H         7.3700172837        1.0013307387       14.5486853088
  H         8.2045414015        2.1495983531       13.7407682862
  O        13.9208823880        2.0564845922       13.9186599337
  H        14.0284158977        3.0157671346       14.1564755835
  H        14.7852470955        1.6789916831       13.8600057405
  O         5.8889629742        0.2746611715       15.2238335889
  H         6.2739200793       -0.6944029896       15.2387255562
  H         5.3952940060        0.3301645163       16.0439227598
  O         8.4582543133        0.2802740367       20.9790365230
  H         8.1668433803        0.2401349315       21.9156016187
  H         9.4229811884        0.3666675134       20.8663816099
  O         0.5372265484        3.2408622562       17.8749744899
  H         1.3554510899        3.6740176175       18.3331095275
  H        -0.2396725411        3.5779790576       18.3519796150
  O        -7.8610283633       -0.0253515627       17.5903381896
  H        -7.0426863791       -0.4684652011       17.9947103380
  H        -7.7877157748        0.8214775424       18.0781782527
  O        10.2347246271       -3.4160933688       12.1082384635
  H        10.0338696482       -4.0902630087       12.8091633897
  H        10.7957660800       -2.7525462250       12.5732463261
  O         1.1788455434       -3.4953528072       18.3050961191
  H         1.3143323676       -2.5667821480       17.9993917307
  H         0.5816245894       -3.8463104019       17.5881595240
  O        -2.1861617365       -2.5589256340       16.2128212968
  H        -2.2674777790       -1.5711934985       15.8851405624
  H        -2.6055399491       -2.5965113836       17.1053835102
  O         1.4610373744        3.5268370521       23.7722062279
  H         2.3095390873        4.0184729573       23.9557575684
  H         1.4888215344        2.8634352012       24.5242233181
  O         3.7603987644        5.3247729029       16.2110230316
  H         3.7827943042        6.2849615595       16.5109974396
  H         3.5602482843        4.7986472958       17.0173359892
  O        -0.8777468693       -3.2373402377       22.1372493291
  H        -0.1255092167       -3.0625734090       22.7669909973
  H        -1.6102541998       -3.4229148912       22.8719114830
  O        -0.9393744065       -1.9662044534       19.6776237196
  H        -0.3653895494       -2.6448226410       19.1391749254
  H        -0.9220864838       -2.3501124521       20.6051762304
  O        -4.8461270089       -8.0674861624       18.6183884283
  H        -5.3911715458       -7.2434450989       18.7475563799
  H        -4.4990751308       -8.0043857128       17.6617135930
  O         4.6956536928        2.0427799496       19.5288323604
  H         4.1526871080        1.7056536537       20.2400210030
  H         5.5509876924        2.1546136081       19.9902096952
  O         3.0570736338       -3.8066777850       20.8441262727
  H         2.4238171476       -3.8200572976       20.1104115470
  H         3.1369504653       -4.7624413001       21.1254826706
  O        10.2262376327       -8.7788075976        6.8887756034
  H         9.6208922912       -8.0278657749        6.9039075502
  H        10.9001015715       -8.6899896580        7.5780374933
  O        -1.4529333694       -5.0113307989        5.3652704575
  H        -2.2842438982       -4.5468784637        5.5680215466
  H        -1.0048170833       -5.1471817752        6.2276846503
  O         0.6351588824       -5.7124174787       13.0164378181
  H         1.0580372867       -6.3758614750       13.6514244435
  H         0.2901168758       -4.9775842953       13.5715399341
  N         7.4575813127       -4.5511049813       16.5057328680
  H         7.4780951067       -4.3072859080       17.5400640087
  H         6.6734346542       -5.2453177484       16.5943659827
  H         8.3090505943       -5.1727318467       16.3895500260
