     193
 CELL 12.4294 12.4294 12.4294 90.0 90.0 90.0 i =    79720, time =    39860.000, E =     -1096.5282845145
  O         6.1727010950       -1.4759952828       39.3322833391
  H         5.3930550676       -1.4221947960       38.8029279773
  H         5.8603701566       -1.1720019943       40.2076541804
  O         6.2476779081       -7.8954702855       37.1271161132
  H         7.0959798071       -8.3496413543       37.0706591363
  H         6.6100760377       -6.9655016003       37.2373132589
  O        11.0043698829       -3.2184509810       37.9192470540
  H        11.7554742075       -3.7539747590       37.5504097969
  H        10.3264530472       -3.9177409039       38.1264920596
  O         8.4259560819        0.2425399077       38.2774609169
  H         7.5944118765       -0.1734873089       38.5361591984
  H         8.2680650769        1.0436347549       37.7847308361
  O        -3.2029132287       -5.8115310847       34.4103813383
  H        -3.4845542905       -5.0752976479       35.0252660969
  H        -3.2273589248       -5.4909349055       33.4759168543
  O        15.2896472174       -3.8842631329       45.6730910756
  H        14.7531866392       -4.1441756889       44.8234740206
  H        15.7625030116       -4.7685415778       45.8016977021
  O         5.4230139370       -1.3793703583       29.7193371843
  H         4.5577558294       -0.9466039400       29.9599847774
  H         6.0011256442       -1.3242205379       30.5406194756
  O        13.4268358772        3.8997002464       40.2322273848
  H        12.8214040859        4.6581061006       40.3915906766
  H        13.9187967301        4.1009976412       39.3974170382
  O         3.2836871497       -7.0973362655       29.9625104594
  H         3.2145128145       -6.4531075794       29.2332192879
  H         2.9083725553       -7.9884660286       29.6655454797
  O         9.1052249405       -2.1719926979       29.5757766355
  H         9.5130499426       -1.8871339835       28.7408249207
  H         8.8399430575       -3.1681796828       29.5687580479
  O         9.2595331215       -4.6858436687       32.0985100633
  H         9.8851981171       -5.0950488529       31.4647728038
  H         8.4075731247       -5.1206807594       31.7744841672
  O         0.9603818938        5.4659347329       33.4104977014
  H         1.9158068047        5.4770666590       33.5056864835
  H         0.8785147799        4.6424016913       32.7514845766
  O        -1.7821096372        0.9759368808       41.7710637777
  H        -1.5517357867        1.0471397946       40.8095325180
  H        -1.4084052742        0.1258286662       42.1211139664
  O         6.2105550415       -3.2290008489       33.7143247381
  H         6.7594416241       -2.8100055505       32.9871500935
  H         5.9581863797       -2.3925514835       34.2655450246
  O         6.7189214530        1.7557748975       34.5055807906
  H         6.0621330905        2.5457437983       34.5830485754
  H         6.9925996788        1.8075728030       33.5423165830
  O        16.7039069535       -1.2709751507       37.3924310453
  H        15.9490775111       -0.7672239265       37.7567150783
  H        16.2930565750       -2.0116158681       36.8984454836
  O        13.6981192141       -5.2694846764       30.9321828117
  H        14.1401285796       -6.1599164688       30.8851135256
  H        12.7599524828       -5.6145058070       31.1102584114
  O         9.1615449300        3.4044843087       39.1900444901
  H         8.9650009348        3.0502441092       38.3236886162
  H         8.5577531558        2.8919961646       39.7914695574
  O         5.3816585699       -0.6014243144       34.7857970907
  H         5.9525824813        0.2061755009       34.6948964056
  H         5.1783665386       -0.7074752334       35.7361942587
  O         9.6828589331       -6.0101704896       39.2005540460
  H         9.3514671645       -5.6506802369       40.0634379386
  H         9.2975716784       -6.9238649202       39.1720749448
  O        14.4683828785        3.4591192686       25.2783620064
  H        14.5533663015        2.5702736454       24.8552232659
  H        13.8339157312        3.8700657790       24.6561530335
  O         4.2786030808        4.0735788884       39.1921339622
  H         5.0303430615        4.0829609315       38.5773307228
  H         3.5488444748        3.6717228432       38.6599646954
  O        13.0111343970       -0.0491282958       39.2816286839
  H        12.1861707135        0.4446772133       39.3061542502
  H        13.0226441411       -0.7950388839       39.9757421014
  O         5.1508569166      -10.1808770136       28.6802786814
  H         4.8113414760       -9.4653206692       28.0843425188
  H         4.5091122723      -10.1999867816       29.4034027610
  O         3.2147369441        1.3140239494       35.9791277401
  H         3.8199434054        2.1245008559       35.8137296838
  H         3.4598308638        1.0604569000       36.8897334429
  O        13.1146556605       -4.7651555153       24.7904223676
  H        13.2630818863       -4.4707156470       25.7618796111
  H        13.8392954543       -4.3479969491       24.2442254707
  O        10.8297106689       -9.1549449746       43.0590771172
  H        10.7117069924       -9.9917378513       42.4547036841
  H        10.0790016287       -9.3401612593       43.6567919415
  O        11.7220827560       -1.1782171755       30.4060302390
  H        10.9166228206       -1.7429465464       30.3264777959
  H        11.8115551639       -1.1789890885       31.3925432292
  O         6.1154964323       -5.9053239178       34.1978551072
  H         6.9965655710       -6.1296573316       33.8804732264
  H         6.0786211880       -4.9511758896       33.9086817717
  O         3.3749835720      -11.7989028039       38.9271553642
  H         2.4542420305      -12.1024806185       39.1394663782
  H         3.8043378062      -11.6713552795       39.8010797323
  O         2.1245851078       -2.9795956467       35.8765650945
  H         1.4731454203       -2.1739007318       36.0037690906
  H         2.3018053242       -3.0178324528       34.9063093973
  O         1.0751115735       -2.0784090469       41.2113691787
  H         1.8388288333       -1.6649608139       41.7048584421
  H         0.3311809738       -1.9037889120       41.8385342115
  O        10.8315468868       -5.9774376714       30.1669635376
  H        11.3847805819       -5.9188759431       29.2859489189
  H        10.9064305497       -6.9005960200       30.4959272475
  O         2.8489244883       -0.5911944366       30.2320566433
  H         3.0159210618       -0.9335421815       31.1816375534
  H         2.5712367609        0.3511027876       30.3026716560
  O        15.5558168851       -1.1677255244       32.9069207576
  H        15.5211239244       -2.2143089136       32.9869002442
  H        16.3798649224       -0.9368211642       33.4351306052
  O        14.7711846286        2.1358208357       29.8429185250
  H        14.2203246071        2.3815229098       28.9901178381
  H        14.2350309661        2.4298432690       30.6466992985
  O        10.1102269451       -8.2931493329       34.7500504052
  H        10.9972558771       -8.3871117268       35.1004424634
  H         9.8357085560       -7.3318552077       34.6705367262
  O        11.7261466039       -1.1464114645       33.1165866052
  H        12.4171688185       -0.6463335295       33.6470780418
  H        11.8287244721       -2.0870831128       33.3506492588
  O        12.1597483545       -6.1917014886       40.4581155858
  H        12.8381090370       -5.4631397479       40.1903052252
  H        11.3891712532       -6.2699314919       39.8089539030
  O        16.3517128957       -6.5531332624       32.8284783532
  H        17.3353004047       -6.5554024960       33.1364335581
  H        16.3957571706       -6.7938142029       31.8653227084
  O        -2.7648059031       -1.0997092534       23.4126590450
  H        -3.0748148038       -0.8206189315       24.2966034859
  H        -1.8080869886       -1.0993407132       23.6155466201
  O        11.3990501317        1.9417138085       39.0491687868
  H        12.1729943392        2.4748369721       39.3577519147
  H        10.5395332584        2.4563360273       39.2225527047
  O         9.3267709342       -0.2424511656       45.7858409212
  H        10.1740097893       -0.5105648881       45.4274002548
  H         9.3783922801       -0.5009321686       46.7373210502
  O         6.7154750022        3.4005255243       31.1199156148
  H         6.1680911888        2.9284950580       30.4125242268
  H         7.6552525437        3.1964129600       31.0397999767
  O        13.2137491675        2.8822043443       31.9343591602
  H        13.0746515424        2.1335715775       32.5126973677
  H        12.3282124613        3.0788206989       31.3702403171
  O        19.8248877327       -1.6350437313       31.6378745682
  H        20.2769510076       -1.1341734429       32.3408106919
  H        20.5016332206       -1.6682273864       30.9063331296
  O        11.8138849730        1.5745240280       36.2007740825
  H        11.5619042850        2.0067277863       37.0928072871
  H        11.0979524260        1.5971713125       35.5045709962
  O        13.7775903907       -4.3587786478       39.9205727685
  H        14.7278964002       -4.8270981827       39.8679010954
  H        13.7401541022       -3.4693878974       40.4937111035
  O         4.7793950800        3.7151354677       34.9476556819
  H         5.2017068819        4.3832255120       35.5584414275
  H         4.5131452512        4.2675264971       34.1776204561
  O         0.3403386240       -1.1680558137       36.5347385105
  H         0.2273231135       -0.2815212271       36.1685081102
  H         0.1906446538       -1.0200598459       37.4745116420
  O        17.4115290030       -3.9120379188       31.0171185967
  H        17.1888955345       -3.5434933839       31.9147335993
  H        17.5244122240       -3.1901591268       30.3562712269
  O         8.1872880232       -3.3832307905       35.7580160778
  H         7.5570179982       -3.3082998006       34.9687178817
  H         8.8835173883       -2.6399791414       35.7385782614
  O         1.3343978338        0.4857950896       33.9271935686
  H         1.8788781395        0.8998175324       34.6580701869
  H         1.9941268373       -0.1262814097       33.4517428466
  O         8.1597768636        1.8289719135       40.9918952896
  H         8.7156328604        1.1612556772       41.5334253816
  H         7.2466339858        1.6536591809       41.2148413434
  O         8.9966235100        2.4432402315       32.7628995062
  H         9.2758072704        1.5811353117       33.0341552548
  H         9.5971555076        3.0619784502       33.2907144795
  O         8.1912649569       -4.9879434921       41.3774986221
  H         7.4566639245       -4.8466543729       40.7590210369
  H         7.9190393735       -5.6530407108       42.0195380225
  O         3.6895518853       -5.5850260514       40.1962818970
  H         4.3634873767       -4.8593319074       40.1449531257
  H         3.9657969504       -6.4139526537       39.7293962310
  O         0.2441795631       -7.6190511218       36.2202304740
  H         0.2841555481       -6.6818441197       36.5996378673
  H         0.5286462493       -7.5126971999       35.2915534487
  O         8.3508863600        2.8935947579       36.5645702528
  H         7.9907152892        2.4096489535       35.8617950687
  H         9.0228817128        3.4965389960       36.0996147120
  O        10.3949363584       -1.3331160657       39.7474078807
  H        10.7411448878       -2.0495615380       39.0907102408
  H         9.6927220309       -0.8873829619       39.4002090974
  O        19.6292301739       -5.2963500830       25.0800413006
  H        19.8509058384       -4.5751851380       24.4569067509
  H        20.4177335742       -5.3049709402       25.6355413640
  O         6.0421361644       -4.2288131625       27.1617998125
  H         6.2435541560       -4.5989384768       26.2255694944
  H         6.0923751276       -3.2541042211       27.0123800820
  O         6.8588557645       -6.0655177462       30.9960291794
  H         6.5048373946       -6.9668796790       30.7902771887
  H         6.1911634479       -5.3247439925       31.0146351811
  N        12.1898284663       -3.7569020203       33.8401058982
  H        12.7536404634       -4.3237012902       33.2269753692
  H        12.7771103704       -3.8538427156       34.7129075175
  H        11.4407568961       -4.3828192352       33.9824700222
