     194
 CELL 12.4294 12.4294 12.4294 90.0 90.0 90.0 i =    70820, time =    35410.000, E =     -1097.1463017362
  O        11.2533883789        0.6346215888       11.4269081592
  H        11.4867568766       -0.2581991459       11.6587581558
  H        12.0756897042        1.1790286572       11.2706698561
  O        16.3308041076       -9.1172246494        9.5375900962
  H        15.8088255657       -8.4050018659        9.9239953633
  H        15.7145817102       -9.8879502556        9.6295175469
  O        13.7837619891      -10.6886815831       10.5476952489
  H        14.1924957994      -10.4779511341       11.3699672692
  H        14.1915086554      -11.4872696571       10.0921705667
  O         7.9796574377       -3.0600583983       13.6403955362
  H         7.6890324613       -4.0112303229       13.9330008373
  H         7.2275279208       -2.3845666101       13.6564658806
  O         3.2439759439      -10.1117054973       12.7851281369
  H         3.4096462074      -10.7359435327       13.4805260412
  H         4.0564800853       -9.9789785806       12.3737159545
  O        17.3560851151       -5.8369217544       23.1531534395
  H        17.9298948086       -6.2229511571       22.3424436563
  H        17.4300195179       -4.8511970945       23.0945625449
  O        12.7555690785       -0.1895360704        2.5413937391
  H        12.8907926161        0.7083821395        2.1523359609
  H        13.3616982425       -0.8003922275        2.0965719374
  O        18.0724941134        2.9285535322       11.5957310156
  H        17.4691289855        2.9865979199       10.8029538390
  H        18.0285017580        3.8910918708       11.8934644997
  O        10.0779485864       -6.5562144076        3.0660708513
  H        10.0615725086       -7.3371363813        2.3705688076
  H         9.7036697733       -6.8046821836        3.9117400502
  O        13.0904079736       -2.4393666040        9.4799190358
  H        12.4345914025       -2.2147946859       10.2290348671
  H        13.3022806534       -3.4085901261        9.5624018812
  O        14.9754310690       -8.8547786575        4.8656236138
  H        15.8693679293       -8.5430697957        4.7403277005
  H        14.8828285241       -9.2886463250        5.7807823566
  O         9.9781518485        1.5538708708        8.8403579651
  H         9.7481365577        1.2374810433        7.9204036782
  H         9.9833800364        0.6752725771        9.3754520596
  O         6.0373423558       -1.0800634630       13.9899441540
  H         5.6826364419       -1.1621565237       14.9048328670
  H         6.6011342300       -0.2537411306       13.9697436773
  O        14.8352971972       -6.8937607630       10.5758324741
  H        15.5824912284       -6.3681228939       10.7869199255
  H        14.2702770209       -7.1599232713       11.3607812154
  O        11.5178528895       -2.0750517520       11.6508284645
  H        10.5852451928       -2.3193271763       11.4639530929
  H        11.8844905942       -2.6400877828       12.3338032513
  O        16.4904796994       -1.5560574242       11.9845807095
  H        17.1240302970       -2.1851129222       11.5470063005
  H        17.2226626511       -1.0767903289       12.4551935652
  O        15.3393306579       -5.2365437641       13.8084380842
  H        14.8134563049       -6.0463475830       13.4385731881
  H        15.2802669760       -4.5903968935       13.0740062353
  O        15.8510765748        0.9499038164       15.6201397837
  H        16.5734284141        1.5973872947       15.9065276475
  H        15.0118360719        1.4153427294       15.8818242005
  O        13.0476425935        6.0103667242        6.3121134403
  H        12.9002926550        5.0501369945        6.3451009444
  H        13.1623140226        6.3156084924        7.2650347571
  O         9.8899072494      -11.1792888518       13.7100956761
  H        10.3161012209      -11.4483200211       12.8294781137
  H         8.9220175508      -11.1987952182       13.6108701940
  O        17.0955609377       -1.4091028452        3.8213363411
  H        17.0107145152       -1.7730001138        4.7292920175
  H        16.4687342994       -0.6283157321        3.9600099087
  O        10.7833978903        4.7719426529       11.0192055388
  H        11.3568599420        4.2661422951       10.3640091712
  H         9.8680145880        4.4608377335       10.8816977350
  O        18.9285597633       -1.9342982039       20.4828308446
  H        19.8460920505       -1.5655264974       20.5807259952
  H        18.9529445438       -2.4737338367       19.6624284467
  O         7.2032718955       -3.9839407039        6.1073908455
  H         7.9238218025       -3.6106205571        5.5644249555
  H         7.7437281650       -4.5419453915        6.7729124105
  O         9.3639575445       -2.7364967580        4.9723301522
  H        10.1144344857       -3.3343559188        5.0896407124
  H         9.7561897013       -1.9381574301        5.4119052664
  O        18.2979864563       -7.1418297642       12.9227252243
  H        17.9257023180       -6.4679336438       12.2208721877
  H        17.6721181459       -7.2476805131       13.6763427861
  O        20.5650962028       -9.1488936008       10.0185389737
  H        19.8055384588       -9.5217287124       10.6521325669
  H        20.9640728778       -9.9287869247        9.5215106369
  O        15.8843766170       -3.7291153269       20.4913181834
  H        15.9052640726       -2.8843619099       19.9685990443
  H        15.9682552238       -4.3912971824       19.8063496093
  O         8.7692449690       -5.9412472166        7.5109271880
  H         7.9286138366       -6.3048038700        7.9202367625
  H         9.3403604142       -5.7046600189        8.2682961088
  O        12.9725721617       -9.5990063929       15.4412694025
  H        13.7542465959       -9.0742583031       15.6568931602
  H        12.3854777254       -9.1958939393       14.7561826260
  O         9.0343041314       -3.1758455831       11.2250434454
  H         9.3370940184       -3.9718712311       10.9079110548
  H         8.4786469825       -3.3192579966       12.0436859697
  O        13.3618153888       -1.8052386298       17.5032885032
  H        13.0877131665       -1.0961385460       16.9232909783
  H        12.7323381240       -1.6703199097       18.2462364109
  O        13.5806869881       -5.2201454334        8.8114604372
  H        14.3438735808       -4.6155086802        8.6614013289
  H        13.9720928163       -5.8817898640        9.4423918472
  O        11.3805317193       -2.1634402676        7.2605138493
  H        11.5545811176       -3.1148210555        6.9343679042
  H        12.0944854618       -2.1186638272        7.9857940631
  O        24.5629202287        0.8919630319        6.0643355184
  H        24.2409359956        1.8446521461        5.8766553200
  H        24.3331438456        0.6291518342        6.9745509418
  O        19.3388710723        3.0860908568        5.6103690681
  H        18.6785177070        3.3922872458        6.2864065981
  H        20.0220615845        2.5697179296        6.1645298011
  O        18.6423230667       -5.8911806568       16.8908799711
  H        18.7788112170       -5.5028110250       16.0053953395
  H        19.0652127744       -5.2844778016       17.5580813550
  O        19.0859499803       -6.9979312081        8.9976997209
  H        18.5061905360       -7.4615477676        8.2400782715
  H        19.5286005764       -7.8273107997        9.3246770016
  O        16.0077792930       -6.0873785511       18.6030796714
  H        15.0585267451       -6.2055904365       18.5372170201
  H        16.2722715016       -5.5356058355       17.8542220800
  O        17.4294954634       -8.1763254584        7.0886047096
  H        16.8422403442       -8.7119734110        7.6200569082
  H        16.9352225308       -7.4916727085        6.6587452756
  O         7.6119442132       -5.5154906904        1.9482656132
  H         8.5164077588       -5.8896079544        2.2221388346
  H         7.2777694062       -6.1908412192        1.2816278163
  O        15.8865878650       -1.7244562078       18.6482413545
  H        16.0457494003       -1.0702575142       19.3636965172
  H        14.9438771484       -1.6130802021       18.3847416069
  O        14.9216707289       -4.3163323833       16.4723546263
  H        15.2918663732       -4.0486176524       15.5604475326
  H        14.7175059757       -3.4893201195       16.9662868393
  O        11.6950621625        3.3990222246        5.4858120712
  H        11.9321301075        3.2445299280        4.5464336003
  H        10.7858750954        3.7796120455        5.5813470331
  O        15.1337034537       -2.1489109041       14.2949897892
  H        15.8753476614       -1.8630003832       14.8755803729
  H        15.4441819140       -1.9241365769       13.3996313526
  O        21.0800748081        1.0249137673        6.2973246078
  H        21.5480334621        1.0361020993        5.4415746307
  H        20.1971132661        0.7571153396        6.1577979688
  O        16.7770331050        0.2961838774        7.9237647085
  H        16.2857479355        0.2082554541        8.7339109101
  H        17.5806597611       -0.2118621609        7.9289423930
  O        14.9867234092       -0.4124692485        9.8576898559
  H        14.4282571638       -1.1185878862        9.5000643703
  H        15.5423613351       -0.9525410239       10.5432976063
  O        10.1495858139        0.5260396030       16.5445493301
  H        10.0989112216        0.9734311918       15.6999728112
  H        11.0280404718        0.6123780867       16.9632929577
  O         9.1454054141       -1.0540888641        8.7897506957
  H         9.7433482945       -1.5527745060        8.2038349421
  H         9.0406642972       -1.6227600334        9.5887246377
  O        24.0965046311       -4.2652317700        5.4541025481
  H        24.8239411168       -3.7660826172        5.0170267973
  H        24.4286994356       -5.2337033565        5.5084751031
  O        10.2720462030       -5.2747390202        9.8451469688
  H        10.3256990148       -6.1708138634       10.3648240807
  H        11.1857193253       -5.0012513879        9.6674904392
  O         5.2363088981       -3.3108413922       10.1033319420
  H         4.8500004585       -3.5024245546        9.2015088402
  H         6.1577378922       -3.0667412348        9.8819605981
  O        12.2634690001        3.8150399123        9.0349164326
  H        11.4389070803        3.3981364361        8.6684891212
  H        12.8330169551        3.1043151994        9.3119057984
  O        14.5800197512        1.8282777624        6.9222784172
  H        13.8718850943        1.2171568490        6.4836212705
  H        15.4184817184        1.2347003748        6.9091299647
  O        14.0948975432       -7.8287504336       12.9374258062
  H        13.4776986832       -7.6230223141       13.7151730412
  H        14.7001828971       -8.6237852165       13.1526008080
  O        12.6306094057       -6.0772557942       14.7937298034
  H        13.2079250177       -5.9825480349       15.5819540467
  H        11.8063512259       -6.3740890093       15.2056783228
  O         4.2169242625       -7.2598763143       15.7714798265
  H         3.5094831640       -6.6932407888       15.4336252121
  H         4.8240228674       -6.6955741374       16.2906395612
  O        19.5594921828        1.6380622717       13.7810887536
  H        19.3560801669        2.0712840993       12.9972042631
  H        19.0698448746        2.1531502083       14.5269261927
  O        12.6484539550       -3.4635573575       13.9262635616
  H        12.5328042348       -4.4350396013       14.0724977133
  H        13.5952893919       -3.2921775669       14.0847761552
  O        21.6856789727       -7.7145493081        5.3871518743
  H        20.8142218065       -8.1179674013        5.3812975964
  H        21.5288012852       -7.0854003447        6.1757459432
  O         5.5157765092       -9.6889100813        3.3205122180
  H         5.2318899058       -8.7888001574        3.0867820024
  H         6.0698197122       -9.6183412595        4.2013950281
  O        10.8689110649       -8.4469445268        1.3297914644
  H        10.3407473417       -9.2190440839        1.0910842025
  H        11.1117889953       -7.9803476995        0.4984837598
  N        10.3020224109       -1.9491477894       14.7250104624
  H        10.5799500380       -0.9871923570       14.4222131343
  H        11.0768361321       -2.5958768623       14.6305267700
  H         9.4859237846       -2.2720813279       14.1128770858
  H         9.8250497303       -1.9676208566       15.6873246328
