     194
 CELL 12.4294 12.4294 12.4294 90.0 90.0 90.0 i =    69620, time =    34810.000, E =     -1097.1520312065
  O        10.9075626340        0.0650528636       10.6707523422
  H        11.2316121438       -0.8353739465       10.9174634000
  H        11.7085826898        0.5837058081       10.9094094512
  O        15.1662882329       -8.0329414917        8.8728225365
  H        14.7599777349       -7.2994084957        9.3764899884
  H        14.5113419232       -8.6616066341        8.5520560815
  O        13.1268037079      -10.8403963539       11.0188827708
  H        13.4989514752      -10.2928357885       11.7762311184
  H        13.8512962258      -11.1117374649       10.4341678902
  O         7.6962690587       -3.3200914902       13.0686207096
  H         7.3956316120       -4.1264307821       13.5072627155
  H         6.9616030854       -2.6471637320       12.9883440358
  O         2.2830378601       -9.8192252788       13.0813708646
  H         2.7449746148      -10.3931059021       13.7581477658
  H         2.9939329134       -9.8230665881       12.3850378236
  O        17.2294207593       -5.2939939906       22.9225631969
  H        17.7420141644       -5.9534914810       22.3431579972
  H        17.3583646960       -4.3670774701       22.5914470885
  O        12.6092434339       -0.6511608002        2.3189651298
  H        12.4223200991        0.3635132701        2.5031470760
  H        13.3040871974       -0.7070126896        1.6565592492
  O        16.9207157873        3.2516744245       11.2778815680
  H        16.4076985387        3.6308801422       10.4515270622
  H        17.2172852496        4.1261403872       11.7177817364
  O         9.3505819380       -7.0654025306        2.6983478635
  H         9.6466009273       -8.0299099943        2.6282365049
  H         9.0457156200       -7.0086278070        3.6072463770
  O        13.5723689586       -1.5839149237        9.2321961456
  H        12.7602545443       -1.8468893111        9.7752848795
  H        14.0352438316       -2.3693640149        8.8254362179
  O        14.0702854475       -8.8330028833        4.2999268962
  H        14.6726560275       -8.0743108130        4.1554741221
  H        13.9789112225       -8.8898311761        5.3051339565
  O         9.0130601995        1.5325628858        8.7430125327
  H         8.5474016621        1.4769722024        7.9500855485
  H         9.1820400782        0.6649265814        9.0289012269
  O         5.8900242537       -0.9766607202       13.4966256968
  H         5.3210991038       -0.9833955805       14.3350746614
  H         6.3402640515       -0.0951916736       13.3588219876
  O        14.4054385511       -5.9759599388       10.6081811511
  H        15.3579388008       -5.6354746161       10.6248613199
  H        14.1906446125       -6.2704724049       11.5161930591
  O        11.5547494522       -2.4134157334       10.9123157050
  H        10.6902014452       -2.9081082025       10.7944925058
  H        11.9851656930       -2.8507674575       11.7187223184
  O        16.5891978457       -0.7324078305       11.4185622239
  H        16.8011524493       -1.4685594782       10.7265489391
  H        17.3318911140       -0.7783300574       12.0830855562
  O        15.2834214031       -4.6576069887       14.0867264090
  H        14.5608912225       -4.9731590460       13.4830722088
  H        15.5420883044       -3.7851537746       13.7500114954
  O        15.6119424418        1.4192994852       15.5916501188
  H        16.3680485716        2.0578326885       15.4400355718
  H        15.1418607403        1.9254726128       16.3103456169
  O        12.4094121364        5.0058042418        7.1645879427
  H        12.1263170397        4.3582383260        6.4729423307
  H        12.0905209006        4.5717451205        7.9933924934
  O         9.2411585775      -11.8687505297       12.7231636143
  H         9.7703456152      -12.1120675746       11.7918450521
  H         8.4396922029      -11.4904081828       12.3703376182
  O        16.3160101790       -1.1773654649        2.8860230260
  H        16.5137443712       -1.5067544994        3.7887307912
  H        15.9793408664       -0.2804857238        3.1708491759
  O         9.9509139428        4.6873287660       11.7458631803
  H        10.5203207984        4.0542621453       11.2355735830
  H         9.0834406495        4.4244463287       11.4798787701
  O        18.9556013173       -1.9842799901       19.9162435574
  H        19.8577255655       -1.7818248947       20.2585466187
  H        19.1836470493       -2.8174162484       19.2845873104
  O         7.3028544058       -3.9303225266        5.7912083371
  H         7.9776145559       -3.3976644946        5.3723897175
  H         7.6275698721       -4.6534396518        6.3626107337
  O         9.6747704065       -2.6413017198        4.4590047058
  H        10.0154001932       -3.5181628919        4.7265721880
  H        10.3177694064       -1.9525202401        4.7441274622
  O        17.3774289987       -6.8513569679       12.6409837022
  H        17.3084755415       -6.0729893635       12.0075559760
  H        16.4197306310       -6.7481252555       13.0688637135
  O        20.1178737714       -8.8244884511       10.3005767088
  H        19.4647993002       -9.1104092137       10.9461889742
  H        20.4478343078       -9.5993135662        9.7213482808
  O        15.1727592935       -3.2549552568       20.1316958541
  H        15.5880356572       -2.8001680075       19.3680020973
  H        15.0983795427       -4.2487666640       19.7897315615
  O         8.3573967374       -5.7985979654        7.4234067449
  H         7.7151476028       -6.1974210109        8.0656140734
  H         9.1115670011       -5.6037078562        8.0078693946
  O        12.0469245080      -10.4832513090       16.0320171865
  H        12.9138027426       -9.9606046921       16.0812602151
  H        11.6097030627      -10.0676981541       15.2696993618
  O         8.9688002730       -3.6457977841       10.7394211019
  H         9.2300150422       -4.4800373904       10.3010945241
  H         8.3056626685       -3.6643893799       11.5130902284
  O        13.3811612600       -1.6243673621       17.2555030329
  H        13.1330085835       -1.0467080605       16.4767364697
  H        12.5799191912       -1.5969503766       17.8624281264
  O        12.4077384641       -4.7358992014        8.8744681068
  H        12.4240663187       -5.3036675453        8.0850107033
  H        13.0525731699       -5.1855959760        9.4995416471
  O        11.4931368386       -2.3389755792        6.9807482534
  H        11.4418059959       -3.2742310067        6.6544863006
  H        12.1485154859       -2.3404495909        7.7824831687
  O        24.3749437288        0.5910942920        7.6523776858
  H        23.5392499655        0.9811875307        7.9868720845
  H        24.6012841088       -0.0584869335        8.3148764328
  O        18.8848954563        3.0212627100        5.2977598200
  H        18.2255656767        3.2538436392        6.0103883241
  H        19.1753406222        2.0421004776        5.4910031443
  O        17.8658160008       -5.6561676606       16.8500937968
  H        18.4970040670       -5.7475880151       16.0784242415
  H        18.1466316297       -4.8892580801       17.3909374685
  O        18.8344038027       -6.9322607334        8.7537535292
  H        18.1977838628       -7.2652171768        8.1042229920
  H        18.9969404751       -7.6301274253        9.4511290909
  O        14.7782381526       -5.8642867898       18.9314647972
  H        14.0511552431       -6.3680832868       19.3238900360
  H        14.6398541885       -5.5670698748       18.0336435369
  O        17.0173208202       -8.0248378575        6.9568556834
  H        16.1948563565       -8.0982041946        7.5109026289
  H        16.8620151150       -7.3655718493        6.2784828767
  O         6.9091059260       -5.8647682577        2.0037712418
  H         7.7664130687       -6.3917194510        2.0499087292
  H         6.3027031176       -6.2999603336        1.3757575887
  O        16.0064009637       -1.4078151557       18.0625641484
  H        15.9590533011       -0.6147754981       18.6919339787
  H        15.0449083375       -1.4119532676       17.8510936500
  O        13.4300609407       -4.6101239617       16.6896895673
  H        13.9588879146       -4.7098100427       15.8503341259
  H        13.3624261238       -3.6317406351       16.8382673979
  O        10.8959551204        3.2340911635        5.9255050631
  H        11.1300493061        2.6106088742        5.1857087909
  H        10.1174089287        3.7467495135        5.5843296196
  O        14.4933518012       -2.0784331126       13.4031292962
  H        15.2295165149       -1.9034196374       14.1175487682
  H        15.0493396176       -2.0490284428       12.5785701667
  O        20.0117220145        0.4991302977        6.3983170678
  H        20.8421546357        0.4234335501        5.8254534013
  H        19.7118603569       -0.4059534196        6.4685903335
  O        16.3310660423        1.0530197242        7.3125415835
  H        16.0858126771        0.9659850607        8.2505848713
  H        17.2349259981        1.3429037707        7.2088881494
  O        15.1579519570        0.5989559759        9.7670457752
  H        14.6493973182       -0.1596482500        9.5502082225
  H        15.8567083513        0.3768495337       10.3865168960
  O        10.2079230135       -0.0101068810       17.6862151030
  H        10.5945654507        0.5252400176       16.9463564261
  H        10.8359036025        0.0487410676       18.4529609239
  O         9.1418968615       -1.5061883621        8.6804308576
  H         9.8905506470       -1.8589191589        8.1584695484
  H         8.9396552198       -2.2031906539        9.3816919265
  O        23.5961918018       -5.0717512808        5.8753460862
  H        24.4141611920       -5.2619165064        5.3983753771
  H        23.4899601455       -5.8249989186        6.5559141998
  O        10.0202578005       -5.7287084764        9.6579713074
  H         9.8423401605       -6.4522696787       10.3095130407
  H        10.9428576948       -5.4126679606        9.5837164719
  O         4.8707806160       -2.7437408299        9.4441260544
  H         4.1187383534       -2.9965641554        8.9013644067
  H         5.7217272013       -2.6200359505        8.8696932100
  O        11.4191893770        3.2960340536        9.5875348124
  H        10.6658743698        2.7773618299        9.3008080749
  H        11.9951449205        2.6314652396       10.1100805743
  O        14.0437777184        2.4484142715        6.9591685339
  H        13.2631342374        1.7901026540        7.0408487260
  H        14.8040284969        1.8822149910        7.1845412515
  O        14.0199906850       -7.1712430044       12.9039326816
  H        13.1732181726       -7.0900638956       13.3562845634
  H        14.3365322019       -8.0982542399       13.1871290743
  O        11.8061254012       -5.8729311875       14.5464555132
  H        12.0174741347       -5.4512328502       15.4051602475
  H        10.9332786495       -6.3662844850       14.7202662875
  O         3.4034772616       -6.8876459145       15.9576893790
  H         2.9966581382       -6.2647321206       15.2996168966
  H         4.1038538939       -6.3597691047       16.4516733885
  O        18.7680764768        1.6776830854       13.1078730601
  H        17.9793712468        1.8937666112       12.6470191599
  H        18.9301847181        2.4339847557       13.6869612210
  O        12.1710400243       -3.4135847625       13.2718436902
  H        12.0402472060       -4.3486370186       13.4794762455
  H        13.0089215673       -3.0102687347       13.6371443504
  O        21.0025659543       -7.7319678381        5.3951437757
  H        20.0887868039       -8.2190115878        5.3854761519
  H        20.8475506142       -7.0119635003        6.0012993474
  O         4.9971827173       -8.9867354583        2.9151205539
  H         4.4108316547       -8.1596549856        3.0166586190
  H         5.5739256226       -9.0718907826        3.6670405503
  O        10.3774408790       -9.6289140742        1.6718316736
  H         9.9668380917      -10.4716384998        1.3426890167
  H        10.3059841530       -9.0001300279        0.9219793817
  N        10.0260100989       -1.8244388555       14.1255038848
  H         9.6025429282       -0.8620946956       13.9179525593
  H        11.1006395123       -1.9525000425       13.9476389747
  H         9.4863084981       -2.4603017586       13.4635083031
  H         9.8309917597       -2.1199251824       15.0851734336
