     194
 CELL 12.4294 12.4294 12.4294 90.0 90.0 90.0 i =    31620, time =    15810.000, E =     -1097.1124179950
  O        -6.1566585636        4.7557292086        8.1399317181
  H        -6.4887119033        4.4229681154        7.3428988937
  H        -5.4807502331        5.4958912439        7.9553143241
  O        -0.1470592848       -8.3507251810        4.2379105362
  H         0.1612727325       -7.4949194232        3.8410338156
  H         0.6352195873       -8.9211964633        4.2530155052
  O        -3.0365141491       -8.1326725324        8.0386940879
  H        -3.3950973939       -7.2496592134        8.0536416718
  H        -2.2600719374       -8.0531540680        7.4441347418
  O        -7.9951925825       -0.6448572822        7.8245554351
  H        -8.6927545569       -1.2944188369        8.1258178614
  H        -8.0000978320        0.0722041697        8.5577179734
  O       -16.7956640096       -5.5859776174        8.2384881596
  H       -17.3988869608       -5.3291829156        8.9734379248
  H       -16.4959296366       -4.6705819490        7.8574336181
  O        -1.8374555771       -2.0782719472       15.0700794985
  H        -1.5960017764       -1.1781236157       15.2142704795
  H        -1.4977642894       -2.3906574059       14.2053190154
  O        -3.1277321882        3.8012815782       -1.5109110437
  H        -2.4407340231        3.7657117428       -0.7967730860
  H        -2.7233667131        3.9423610343       -2.4164496672
  O        -1.2183629217        6.0861566105        6.0246656881
  H        -0.8662920596        5.3591773078        5.4419021321
  H        -1.2059985531        6.9011682892        5.5423621384
  O        -9.1651191517       -4.1629029279       -0.4966663959
  H        -9.6432075267       -5.0041872450       -0.8106973901
  H        -9.2541764916       -4.0875523199        0.4590544944
  O        -3.5427333014        1.2820722048        1.9634867987
  H        -3.8123449571        0.9502946012        2.8799712735
  H        -2.6528965892        0.8706808509        1.8924915303
  O        -1.2948602008       -3.7502043201        0.2968477032
  H        -0.4049702204       -3.5508318979       -0.2653804010
  H        -1.1942480767       -4.6610516631        0.6121891231
  O        -6.9594887742        5.4426083727        4.2730868188
  H        -6.6941516161        5.5434217500        3.3595307403
  H        -6.2319657623        4.9687490812        4.6496532048
  O        -9.6918565872        3.0010174659        8.7134161030
  H       -10.4401678477        2.5128503598        9.0681412557
  H        -9.0318311418        2.9086065954        9.3726948692
  O        -2.0335185153       -3.8527144803        4.6805271887
  H        -1.8115214200       -3.0801964800        4.0646960454
  H        -2.6012890949       -3.5738797913        5.4263037708
  O        -4.4266080011       -0.0095102991        4.5567377287
  H        -4.7905087300       -0.8737848954        4.8125133407
  H        -3.8712598572        0.1184253093        5.4078451699
  O         1.9927862610        2.2913212409        5.3289237694
  H         2.3340807865        1.3409743971        5.1307077172
  H         2.6894517377        2.7698094099        5.8035487706
  O        -0.5379891446        0.7984062062        3.1300878840
  H        -0.4828620505        0.1070653725        3.8024142975
  H         0.1165056478        0.6589766772        2.4045673371
  O        -0.4612263023        6.0189379660       10.4481976288
  H        -0.3612333031        6.6259011846        9.6826308957
  H        -1.1831550216        6.3427946361       11.0046938775
  O        -2.9233130555        6.3340136375        3.3168020472
  H        -3.0240950613        5.4154986267        3.6168371317
  H        -2.3736794957        6.8874308729        3.8490681400
  O        -7.7829173369       -7.8434384204       10.3315337261
  H        -7.0854707310       -7.5712803565       10.9628494322
  H        -7.1940854070       -7.6985118085        9.5594585465
  O         0.4453077193        1.3174429065       -2.7994292109
  H         0.9281011397        0.7753860314       -2.1698019547
  H         0.1788844648        2.0922792182       -2.2301811012
  O        -6.6809142876        7.4824618711        6.0175676375
  H        -5.9445571192        7.1723412016        6.6096095565
  H        -6.8215622602        6.7245771792        5.4147264011
  O         1.9853335295       -0.2261129733       11.2600016380
  H         1.5927798914       -1.1172741433       11.4237515026
  H         2.8396955652       -0.4082809579       10.8435856605
  O        -7.0846264299       -2.3722386244       -0.9797754431
  H        -6.8309227169       -2.0218624566       -0.0796949000
  H        -7.6854983073       -3.0931617611       -0.7972738767
  O        -6.7538901740        2.8319171106        1.9222158991
  H        -6.4869012755        2.1585463819        2.6301700125
  H        -5.9915918404        3.4950736280        2.0692136834
  O         0.9529313869       -1.9080991923        5.3086045253
  H         0.9117145130       -2.6403836580        4.6456537410
  H         1.8640380021       -1.4486414339        5.3983275610
  O         2.4412697418       -7.1143898863        4.6360083068
  H         2.5993930117       -6.9631662291        5.6265153130
  H         3.4084344148       -7.0760657455        4.3691267012
  O        -1.7784475335       -0.2673064247        9.1978991900
  H        -2.4904543127       -0.6170894769        9.7712246581
  H        -1.1040324920        0.2459772447        9.6947838882
  O        -9.1537616997       -3.1793131263        2.6120148823
  H        -9.9487141055       -3.6922591115        2.9443726145
  H        -8.3494973888       -3.4110452370        3.1387580324
  O        -5.9448402168       -4.8192479015       10.3392756831
  H        -5.5267862641       -3.9789479019       10.6608362873
  H        -6.7919136929       -4.6124224994        9.7926871898
  O        -9.4466811076       -0.3216861596        5.3002604116
  H        -8.9536680125       -0.4277050571        4.4234143636
  H        -8.8020449048       -0.3339127487        6.0888407806
  O        -5.3256747150        1.4277957991       10.9318956850
  H        -4.6580758857        1.9991037752       11.3680950887
  H        -6.1966626251        1.8387957323       11.1821969126
  O        -4.5646621919       -3.5707795579        2.1520434440
  H        -4.1048637158       -4.4725636767        2.3683246112
  H        -3.9581685304       -2.9609672066        2.6741406545
  O        -6.8239710035        1.1284516440        4.1468831002
  H        -7.3243594680        0.3816077242        3.7964652919
  H        -5.9111231065        0.7662732013        4.3914722965
  O         5.9297299552       -0.5535309610        0.9556111067
  H         5.0908171660       -0.4978714349        1.5760753177
  H         6.1787862171        0.3704193179        0.6773646925
  O         4.3175610895        2.2804744789       -0.3747616068
  H         4.8648762917        2.5352240631        0.4162867917
  H         4.5033613646        3.0780462257       -0.9934904352
  O         1.1891374338       -2.7552762770       11.1570183771
  H         1.2894176867       -2.8746873462       10.1761195110
  H         1.9853199903       -3.3090862906       11.3988625032
  O         1.1415036079       -4.4843401556        3.7755952025
  H         0.5484244264       -4.8256557356        3.0801821634
  H         1.5320641287       -5.3307534450        4.1500668002
  O        -3.9773500966       -3.4317242630       11.8549355721
  H        -3.0570643699       -3.5024574051       12.0984035587
  H        -4.3111915500       -3.3745929085       12.8294506696
  O         1.8434235695       -7.3327182889        1.1816229415
  H         2.3666098731       -8.1443599629        1.4108314632
  H         2.3121658483       -6.8347654628        0.5015213723
  O        -9.8374561370       -2.6043362310       -4.0935449011
  H        -9.4325606631       -3.5422383126       -4.0865213945
  H       -10.5041870006       -2.4250498859       -4.7830217983
  O        -0.4241163112        3.2126876357       12.0447180012
  H         0.3022482562        3.8621568535       12.2434346004
  H        -0.2907829680        2.4556202624       12.6488242412
  O        -4.1037981121       -1.0332275245       10.3080332098
  H        -4.0897214889       -1.8603901444       10.8221628320
  H        -4.7324390423       -0.4355122214       10.7038497692
  O        -5.2503245786        5.1550064558        1.8865909482
  H        -5.3625782433        5.2106834223        0.9075530081
  H        -4.3182659842        5.3948329312        2.0228107935
  O        -0.4212571726        2.6181139519        7.0107714633
  H        -0.3558177198        2.0075950719        7.7834918902
  H         0.4580678794        2.5424958201        6.5709076043
  O         3.0429445262        3.0240366598        2.5009561964
  H         4.0132122978        2.9701549570        2.3652513053
  H         2.8133484664        2.9691353393        3.4604366562
  O         1.5947368221        0.9455588339        1.4218471306
  H         2.1852734691        1.6667263803        1.6665265230
  H         1.9115918545        0.7645229008        0.4874606300
  O        -2.8058995628        3.5817422074        3.6203151325
  H        -2.8869316270        2.7107228333        3.1275253825
  H        -1.8153335830        3.6806513597        3.6957388490
  O        -5.3658823355        5.2018145563       11.6167667891
  H        -5.4158916508        6.0845089774       11.2058346376
  H        -4.6441721042        4.7813110404       11.1233519285
  O        -7.4931972865        2.3853702657        6.7288450524
  H        -7.2537268370        2.0407387841        5.8303481096
  H        -8.1406375569        1.7243137924        7.1229432978
  O         4.5095386792       -0.1142122409       -1.8116692238
  H         4.8455327798       -1.0826118021       -1.6539399732
  H         4.7195571790        0.3861791003       -1.0103671467
  O        -6.6085127191       -2.9944869671        3.8178100058
  H        -6.4598408905       -3.6769230131        4.4806713248
  H        -6.1077246175       -3.2278474689        3.0343542396
  O        -8.8102122922       -0.5577960567        2.7103638632
  H        -8.9491242628       -1.5204758530        2.6496791539
  H        -9.5057933103       -0.0813217416        2.1858474009
  O        -4.7361027195        3.7338886116        5.4945543910
  H        -4.4429139809        4.2290424099        6.2520523222
  H        -3.9795407056        3.5659185012        4.8615157140
  O        -0.3989627557        6.4223198571        1.7456984521
  H         0.1415020060        5.6997236772        1.3567259417
  H        -1.2170074945        5.9895786908        1.9779664797
  O        -3.5389161094       -3.2590146295        7.0922258251
  H        -4.0805121200       -2.4101090017        7.3202673177
  H        -2.6721894389       -2.9547231163        7.3288699834
  O        -4.9310818146       -1.0660267403        7.7105363128
  H        -4.7667187196       -0.9822245706        8.7077979376
  H        -5.9381303097       -1.1178076657        7.6326609111
  O       -13.2338658822       -2.3615755498        7.2753677781
  H       -12.7756097260       -2.0743646532        6.4762122557
  H       -13.3650009998       -1.6141461403        7.8738866211
  O         2.6423724245        5.6137763333        7.5416914596
  H         2.4650352951        4.7106717843        7.9123618914
  H         1.9267903946        6.2737563039        7.7947106706
  O        -2.6396036021        0.9173491256        6.5275260733
  H        -2.3014074457        0.3975703781        7.2903555364
  H        -1.9286970539        1.5973146151        6.3218045182
  O         2.4862423008       -6.3329948260       -1.5135134915
  H         3.2271560358       -7.0003891405       -1.7210675490
  H         1.4923919177       -6.6205852653       -1.5943872248
  O       -11.9906535749       -5.0992522732       -4.3121749162
  H       -12.4939557385       -5.6407257896       -5.0046630779
  H       -12.0849889322       -4.1431605273       -4.5725370067
  O        -8.2438810151       -4.7588479319       -3.8146139055
  H        -8.5653496831       -5.6943082566       -3.7481514010
  H        -7.8528492280       -4.8966286210       -4.7568971024
  N        -4.7996475266        1.9315597367        8.2727485378
  H        -4.4466226163        2.9213139545        8.2084909868
  H        -4.0738746814        1.3648739267        7.7044819901
  H        -5.6627673016        1.8746620217        7.7248892206
  H        -4.9474361041        1.6466103176        9.2811691935
