     194
 CELL 12.4294 12.4294 12.4294 90.0 90.0 90.0 i =    46020, time =    23010.000, E =     -1097.1106681868
  O        -1.1145194926        1.8609963002       10.3850892120
  H        -1.8220047612        1.8062920959        9.6042428862
  H        -0.3179488346        2.0596332647        9.8426075276
  O         5.3272555801       -9.3003997522        7.5628718529
  H         4.7037333679       -8.5987138952        7.0693310343
  H         6.1119502362       -9.5164039391        6.9889826982
  O         1.6646725248       -9.7187730695        9.5723799984
  H         2.2330099727       -9.0603014492       10.0061335833
  H         2.2570744347      -10.1832864888        8.9451517072
  O        -3.3348410426       -1.5056319000       11.3174219769
  H        -3.4007407973       -2.4632726544       11.5463047746
  H        -3.7171385909       -0.9248075937       12.0527393125
  O        -9.4985733269       -7.6788871126       10.7347551151
  H        -9.7212797463       -7.5136977657       11.7112862633
  H        -8.5907015022       -7.9922234811       10.7605612617
  O         4.6017688863       -3.6518628880       19.0338606470
  H         4.5591694523       -4.0197549848       18.0675369675
  H         5.5265073326       -3.4551143166       19.3321964920
  O         1.8878016451        1.8409641108       -0.1894336334
  H         2.3623228960        2.5737335194        0.1931704538
  H         1.6594721411        2.0081795657       -1.1540571575
  O         5.6623934382        3.8479844785       10.4050668814
  H         5.7513085891        2.9225662806       10.7066183786
  H         5.8351492847        3.8716733016        9.4737334145
  O        -0.6392155870       -3.8449262429        2.6667359501
  H        -1.5387610203       -4.2780450692        2.4888008534
  H        -0.2014802767       -4.2656609979        3.4733333116
  O         3.4893007862       -0.9997687409        6.6368305403
  H         2.7150943250       -1.4284468801        7.0908459472
  H         4.2008975467       -1.6926263472        6.5945286307
  O         4.2340246302       -5.9425479894        1.9692739435
  H         4.9915352104       -5.8918079214        1.3716962624
  H         4.5043341161       -6.6424755708        2.6878474794
  O        -0.8190929241        3.2414817209        6.7949115961
  H        -0.6898657843        4.0176834689        6.1575683941
  H        -1.2788756338        2.5561615859        6.2561410971
  O        -4.8401066327        0.3146760781       12.6954514843
  H        -5.7731662262        0.0531372497       13.0272672608
  H        -4.6157726959        1.0879074147       13.2489303640
  O         2.7636534822       -5.5579680215        7.1872923165
  H         3.4531681348       -4.8774258541        7.1052806231
  H         2.3637061643       -5.4824227482        8.0903712238
  O         1.3310906204       -1.8802256252        7.7437726241
  H         0.7939420250       -2.6973637244        7.5474484897
  H         1.2440180600       -1.5084838861        8.6588948664
  O         6.0743931461        1.2606267562       10.5816996913
  H         6.5116575599        0.7560398603        9.8732825875
  H         6.5861549206        1.0070164564       11.3524714754
  O         5.3905908966       -3.0744017789       10.5389958718
  H         4.5891560204       -3.6813726472       10.6837339028
  H         4.9645332385       -2.2618315756       10.2668211079
  O         4.2743734476        2.8751656156       13.5618799070
  H         5.2013426863        3.3224755653       13.4352841764
  H         4.1020654438        3.1741393738       14.4712631719
  O         3.4001762447        4.3583125481        6.2546438140
  H         2.6960691849        3.6226990684        6.3082929553
  H         3.0156156426        5.2112893443        6.7024035136
  O        -1.0634481701       -9.4075077568       13.0732259984
  H        -0.2827514889       -9.8214242263       13.5420721801
  H        -0.9976882440       -9.6674475304       12.1435999752
  O         4.8290772502        0.1914491758        0.8217621673
  H         4.5320925489       -0.2926314867        1.5885046527
  H         4.5768278984        1.1472123010        1.0913253767
  O        -0.7235400629        6.0348400105        9.1939403312
  H         0.1579860795        5.6293855794        8.9577163652
  H        -1.4853598805        5.4221645153        8.8230070036
  O         8.1034555501       -2.1590230680       14.8714608695
  H         7.3236603262       -2.2428766768       14.2019679015
  H         8.6015020924       -1.3558438331       14.6429709199
  O        -1.2787572296       -1.2283240405        2.7186221255
  H        -0.4980780718       -0.6604514507        2.9708111662
  H        -1.0174691693       -2.1705193724        2.5782685917
  O        -1.0448437722        1.3967086573        4.3482053644
  H        -0.5281123377        0.8171472090        4.9877447257
  H        -0.3630447739        2.0602043613        4.0217754947
  O         6.9921496552       -5.5117636534       10.5182823195
  H         7.0747373256       -6.1635704802        9.7369873282
  H         6.3930048501       -4.8785977649       10.1108109642
  O         9.9090218521       -8.1717483600        8.4528508273
  H         9.4207020705       -8.5287436771        9.2529656941
  H        10.3065522418       -8.9214026104        7.9218579585
  O         6.0282849652       -2.6501120492       13.3318092551
  H         5.1320452138       -2.4727098139       13.7827009270
  H         5.8745706290       -2.7866072321       12.3391022781
  O        -3.3347415565       -4.3057338946        6.7152113004
  H        -3.9104503308       -5.0642119351        6.8959219644
  H        -2.3744962232       -4.5831080132        6.6204275981
  O         1.6741376997       -7.1865181600       13.4223376103
  H         2.4130151377       -6.6301373328       13.6888380232
  H         0.9331520773       -6.5948650973       13.1030827002
  O        -4.5267803688       -0.4206818017        9.1764453183
  H        -4.8415008778       -0.9351189137        8.3851580332
  H        -4.2294576313       -0.8427875708       10.0416684856
  O         1.1993965109       -0.0819161033       14.2871140706
  H         1.3582682281        0.4732054378       13.5007319040
  H         1.8499789750        0.3261776500       14.9458708414
  O         1.1361564770       -5.3639889009        4.9018621091
  H         0.7557774069       -6.3409825715        4.6578313673
  H         1.6610602952       -5.3920530222        5.7242094993
  O        -0.7057430210       -0.0239226158        6.5794273890
  H        -1.3188476801       -0.6506453866        6.1055926602
  H        -0.0204026867       -0.5617018785        7.0368286609
  O        15.5234352183        1.9192856383        3.7576930585
  H        15.2787104183        1.9309917186        4.6794773610
  H        16.0724657974        1.1043535645        3.5771868235
  O         9.2519844500        1.7242600379        1.8449419670
  H         9.6451778980        1.3914166641        2.7091328315
  H        10.0704240040        2.0533522617        1.3392829606
  O         9.1531993440       -4.6205387519       14.5048282843
  H         9.1301352669       -4.4134007405       13.5294698960
  H         8.6962104943       -3.8211946805       14.8724276004
  O         7.5245765926       -6.7366867753        7.3703039614
  H         7.2639578526       -6.9397730244        6.4158652747
  H         8.3649500740       -7.2455185760        7.5172674971
  O         3.6489071076       -4.1224529580       16.3392664350
  H         3.9765283945       -4.7452005547       15.6095150931
  H         2.7071258999       -4.4117392453       16.4437765972
  O         7.5637460372       -8.3602775940        4.7100086827
  H         7.8577468451       -9.2237326507        5.0986628971
  H         8.3773333855       -7.8644315800        4.4140060380
  O        -2.9074984805       -4.6920121613       -0.6438659774
  H        -2.1434867856       -5.2863660312       -0.7503834741
  H        -3.4972634081       -4.9723206792       -1.3403893500
  O         4.5874707244       -0.2578896058       16.0595761426
  H         5.5122768092       -0.2999893646       16.5525353807
  H         4.0076769229       -0.7257467813       16.6631983526
  O         3.3794689461       -2.2531736128       14.1265201635
  H         3.5165104564       -2.7745499478       14.9918490368
  H         2.5587432586       -1.7281236100       14.3127169914
  O        -0.1617402931        4.8567268801        4.4828870681
  H        -0.9799307867        5.2477699300        4.0466691899
  H         0.3388419484        4.2510795215        3.8547274754
  O         3.7920121331       -0.7019388037       10.6959068629
  H         4.1524065729       -0.5336916335       11.6188285297
  H         4.0466275513        0.0120570038       10.1197724404
  O         8.4053160384        1.7064990479        5.7444854618
  H         9.2575042907        1.5249545644        5.3019427032
  H         8.6793554691        1.6386796584        6.7114403913
  O         6.9684024636       -0.4131620059        4.8198789081
  H         7.3979064908        0.4646318932        5.0910280968
  H         7.7185427566       -0.9569146984        4.4815819574
  O         3.7409584227        1.0744625368        8.5496177860
  H         3.8139526508        0.2797649971        7.9199208689
  H         4.4907085659        1.6452509920        8.1915860260
  O         0.9470974656        3.2046716496       15.1340545713
  H         1.1223201689        3.8206076756       14.4005316771
  H         1.7508588758        2.7205407367       15.3649846873
  O        -2.7335650501        1.1359000624        8.2210394807
  H        -1.9785542071        0.6613995101        7.7843257068
  H        -3.3308330072        0.5404683035        8.7696932219
  O        10.0137667096       -1.3004325432        5.0647367039
  H         9.9348598745       -2.1736490901        5.4737436545
  H        10.4758779521       -1.3476966704        4.1118420877
  O        -0.5055104333       -4.2930508403        6.9955212333
  H        -0.5100490262       -4.9559685883        7.7151567584
  H        -0.1204208957       -4.5738288079        6.1152720720
  O        -5.2373585175       -2.2993696703        7.1342240653
  H        -4.5346893987       -2.9712077391        7.0676841106
  H        -5.2487384156       -1.8928552433        6.2743227477
  O         1.7916825863        2.0729855404        6.3731788283
  H         0.9444222092        2.3420902626        6.7524869507
  H         2.1523474553        1.3463862747        6.9836846979
  O         5.0024570158        4.4711064229        3.5351682449
  H         5.8185339220        4.2071923236        3.9358607334
  H         4.4073561679        4.1425869173        4.2340807740
  O         2.1864343232       -5.3890518318        9.9624210092
  H         1.6534114852       -4.9158933006       10.5940725799
  H         2.5206074194       -6.1922631303       10.3672858226
  O         1.6175721583       -3.9514216246       12.6081543774
  H         2.4239517402       -3.6144950593       13.0322088868
  H         0.8975790889       -3.9336609752       13.2901125170
  O        -5.7400725574       -5.9845045914       13.2115314381
  H        -5.5574909825       -6.1038820946       12.2381554287
  H        -4.9033504078       -5.5981492580       13.5513276529
  O         8.4591469122        4.2465834024       10.9814387682
  H         7.4932848389        4.0718946314       10.9913663117
  H         8.7335783449        3.9964116061       11.8363815165
  O         1.2646304044       -1.5048197820       10.4948290878
  H         1.4201665788       -2.3538048819       10.9509214719
  H         2.1734184249       -1.1234176847       10.4452982571
  O         9.4085095797       -7.0181543638        3.5082589358
  H         9.5167594447       -7.5326084770        2.6728527998
  H         9.2444044154       -6.0690264582        3.2256867298
  O        -5.4670964165       -8.7463522655        1.0258312469
  H        -5.4674511744       -7.7380520207        1.0051805767
  H        -5.0495572418       -9.0666535373        1.8254182650
  O        -0.8422484068       -6.3708939438       -0.6352450048
  H        -1.0774426560       -7.2007313204       -0.2431569640
  H        -0.8760223928       -6.5793546895       -1.6489892647
  N        -0.7704870240       -0.3216014845       12.1179154599
  H        -0.8388046327        0.6250513399       11.7125008072
  H         0.1559256113       -0.6661953869       12.0869271172
  H        -1.5085439640       -0.8204315822       11.5940590963
  H        -1.0701335229       -0.2575036275       13.0729837613
