     194
 CELL 12.4294 12.4294 12.4294 90.0 90.0 90.0 i =    52420, time =    26210.000, E =     -1097.1685700193
  O         2.4297078760        1.1554876709       11.0954587425
  H         2.0019114699        0.9163415881       10.2733287282
  H         3.3573053867        1.4408600090       10.8252575568
  O         8.1720002945       -9.3299404646        8.5723395207
  H         7.3911000580       -8.6186674422        8.7353445083
  H         7.7160821376      -10.2233866539        8.5330551977
  O         5.0119707685      -10.6279316322       10.6350278888
  H         5.5835084236       -9.9496824968       11.1107166871
  H         5.7496056459      -11.1553853242       10.1531745555
  O         0.0788783262       -2.0637563945       12.1020115437
  H        -0.2487559563       -3.0048835237       12.1981834525
  H        -0.7792889211       -1.4915354164       12.0892692805
  O        -5.9805242083       -8.7974381195       12.0834805265
  H        -5.6590446628       -9.1080660577       12.9435475900
  H        -5.1760553865       -8.6899585221       11.4570179719
  O         7.2971528939       -3.4106490726       19.5442672362
  H         7.0809076508       -3.7888641059       18.6643566349
  H         8.2711006577       -3.2595796260       19.5215916418
  O         4.3324646358        1.5453143296        1.1441282018
  H         4.6556218779        2.4394359934        1.4794956162
  H         4.6877755383        1.4458396457        0.2464365773
  O         9.0670762343        3.7553314541       11.0497962847
  H         8.9373347005        3.4504069528       10.0758748864
  H         9.2470193683        4.7222533933       10.9621532488
  O         1.6977792330       -3.4279304581        2.2877962084
  H         0.9171204901       -4.0431727685        2.2137523988
  H         2.0021973593       -3.6070915666        3.2657551447
  O         5.4230022395       -1.2274015364        7.3288116672
  H         4.7023279863       -1.4945484614        7.9775876125
  H         6.1631409754       -2.0215492397        7.3538416580
  O         6.4727122018       -7.1553445522        3.6539309664
  H         7.3605202551       -6.8632539462        3.2849929826
  H         6.8187794011       -7.9120503372        4.1920940464
  O         1.2929273089        3.5515140239        7.6425498643
  H         1.6685252599        3.9280460941        6.7988658061
  H         0.6254688442        2.8553547171        7.3271437855
  O        -2.1735545856       -0.2901439689       12.7108974220
  H        -2.6276167722       -0.4237274071       13.5742512633
  H        -1.9000276852        0.6536573950       12.5960658604
  O         5.1584907852       -4.3477642014        8.8130543961
  H         6.0024969690       -3.9176760579        8.4857476085
  H         4.8678079151       -3.8490392888        9.5921455817
  O         3.2865708938       -1.8246265491        8.9651629978
  H         2.8775602562       -2.6397488783        8.5786214901
  H         3.6633187641       -2.1151504624        9.8338594440
  O         9.1225857814       -1.1124155862       10.3160377026
  H        10.0329364340       -1.4897017296        9.9817960389
  H         9.3484059440       -0.6410734729       11.1596050928
  O         7.3317202222       -5.2053076290       12.1970217612
  H         6.4550832513       -5.6305776449       12.0048709292
  H         7.1231810099       -4.2111985457       12.3051541684
  O         7.0500401977        2.3354107876       14.7554551276
  H         7.9940469108        2.5558319362       14.6370844962
  H         6.8607485734        2.6855382098       15.6615679298
  O         5.9969654609        4.7987130060        9.3411019566
  H         5.1328389450        4.4857336311        8.8886299588
  H         5.7309461960        5.7138707946        9.5043234293
  O         0.5615044940       -8.8482791588       11.8241379116
  H         1.0663433275       -9.6438216004       11.6797320871
  H        -0.2333106315       -9.2937602663       12.3165735780
  O         7.8806355063       -0.5434934179        1.6785274679
  H         7.6023888536       -0.7656525278        2.6027023527
  H         7.3307227821        0.1982553632        1.4195665232
  O         2.4397630123        6.7759850603       10.2363057269
  H         3.2182978371        6.1631083480       10.1093976916
  H         1.6911007267        6.1248002776       10.0438700157
  O        10.3876310515       -1.1109492878       17.5547702361
  H         9.4996724962       -1.2694345412       17.1354382447
  H        11.0477940576       -1.2409602204       16.7942872193
  O        -0.4480633459       -1.1056567897        2.9824559925
  H         0.2306099449       -0.5447217918        3.4006625199
  H         0.0683941195       -1.7651415047        2.4416225012
  O         1.2953293675        0.6055842487        4.3543594162
  H         1.7701544546       -0.1292704536        4.7911837227
  H         1.9706344476        1.3132166467        4.2000163319
  O         9.6133117360       -5.9541869776       11.0542708065
  H         9.9367687192       -5.7303551199       10.1405513183
  H         8.7055320326       -5.6374445487       11.2136517130
  O        12.8226781509       -7.3413817119        9.6378727642
  H        12.7503714659       -7.9606556580       10.4470053278
  H        13.1511274516       -7.9152404687        8.9313249525
  O         9.2905062779       -3.2269637889       14.6120284808
  H         8.3718143158       -3.4256028409       14.7579699936
  H         9.3915158523       -3.1630159853       13.6720706165
  O        -0.3796474728       -4.6188345934        6.0712012628
  H        -0.5204213398       -5.5117405274        5.6489698726
  H        -0.0472063631       -4.8697001063        6.9317029275
  O         4.4153175663       -8.2460612426       14.5200317634
  H         5.1227025126       -7.6445114146       14.9245937454
  H         3.6651660011       -7.6733787226       14.2018563616
  O        -1.1264379576       -2.2094989257        9.2244768137
  H        -1.4325099872       -2.6447538770        8.3842749126
  H        -0.5490737667       -2.8189382349        9.7138988106
  O         4.5871175386       -1.1182175448       15.3132884262
  H         4.4344829025       -0.2093221845       14.9688538115
  H         3.9068792998       -1.3208884707       16.0367041850
  O         4.1391106783       -5.5704023831        6.4672159953
  H         3.7807545749       -6.4193596817        6.2631529612
  H         4.5548137333       -5.5774508580        7.3847185723
  O         3.3220306208       -1.6905872019        5.2613232762
  H         2.9917224567       -2.5956357453        5.3601951441
  H         3.8890100910       -1.4695144641        6.0419377405
  O        17.5966366961        1.7656849421        6.4006450253
  H        17.1529887285        2.2762817237        7.1275494675
  H        17.6580239130        0.7931262234        6.6796869117
  O        10.9746290977        3.5055791342        5.1802571966
  H        10.3369011096        3.9770563264        5.7685027118
  H        11.2853106758        2.6958872448        5.6613865799
  O        11.8061501341       -5.0716315875       15.1105672754
  H        11.7734281174       -5.1361175869       14.1429945165
  H        11.1879870122       -4.3893614368       15.3643467433
  O        10.8732389629       -5.8536911957        8.5710000150
  H        10.4071684762       -6.3206740738        7.8473887763
  H        11.4132156909       -6.6561017187        8.9620287562
  O         6.2231697507       -4.6785439037       17.2768299968
  H         6.3945520675       -5.6372911574       17.0181039035
  H         5.4814828570       -4.7418121885       17.8203629584
  O         8.8521335103       -7.3568211349        6.8114872505
  H         8.7044471460       -8.2330811410        7.2036332286
  H         8.2443374311       -7.2938969002        6.0574127237
  O        -0.6065651115       -4.8922756718       -0.0891114984
  H         0.2006749046       -5.4277755410       -0.2171652237
  H        -1.3808940343       -5.4771176220       -0.4419215820
  O         7.5152187329       -1.1197340189       16.6555062724
  H         7.4539758390       -0.2448083149       17.0653673067
  H         6.7375371327       -1.6434690578       17.0696588809
  O         6.1123448380       -3.4486862948       14.9665002334
  H         5.9226923558       -3.7174339265       15.9073781046
  H         5.6907917501       -2.5509028763       14.8377686690
  O         2.5810194503        4.6389403671        5.6038384714
  H         1.8741774088        5.2220854797        5.1132549711
  H         2.7279806297        3.8949497529        4.9323284290
  O         6.9796562865       -2.4860016886       12.0754827221
  H         7.1833716697       -1.8714382553       12.8400436954
  H         7.6541961483       -2.1100117432       11.4306710957
  O        12.2639856137        1.2760352293        6.7972503714
  H        12.7857388485        1.0615828431        5.9897010234
  H        12.7677899397        0.7664690407        7.5641069373
  O         9.3790213649        1.3578574280        6.2716679346
  H         9.6939965522        1.3489314510        7.1754471781
  H         9.8825049875        0.6429694814        5.8750462582
  O         7.0078558312        0.5837401991        8.9137857099
  H         6.5103022883        0.0050113319        8.2358991071
  H         7.8222308123        0.0422949631        9.2630948299
  O         3.4580435256        2.2839299272       16.7893798003
  H         4.0146267766        2.4751179551       15.9896646514
  H         4.1741008487        2.0082753947       17.4442778242
  O         0.7630593212       -0.1863315283        8.8370095795
  H         1.5729743164       -0.7785462035        8.9291173477
  H         0.0018937674       -0.7320896696        9.0950875558
  O        14.5154456075       -4.1559888328        4.8332793120
  H        15.0599746853       -4.9593341344        4.9593383550
  H        13.6988102945       -4.2101695098        5.4199509866
  O         1.9246759079       -3.9011862284        7.9839526265
  H         2.0035467141       -4.5973096149        8.6604429810
  H         2.5759562827       -4.1613775540        7.2505057033
  O        -2.3975235623       -2.9914632299        7.0644787278
  H        -1.9247170536       -3.6648782556        6.5253905336
  H        -2.2072224976       -2.1820896754        6.5129565149
  O         4.0270084326        3.1391193643        8.2400587371
  H         3.0523739166        3.2526626270        8.1819021592
  H         4.2392789358        2.5484283187        9.0050049734
  O         7.1979895464        2.8341209555        5.1131838015
  H         6.5840845176        2.5757097466        5.8347700817
  H         8.0102172119        2.5015444498        5.5105037342
  O         4.9308964388       -6.4281768657       11.6491070180
  H         4.5259320176       -5.8961026708       12.3765537872
  H         5.3873084539       -7.2603679199       12.0877167946
  O         4.0933053486       -4.5901629859       13.5683160506
  H         4.8653956652       -4.3686772175       14.1764911372
  H         3.2568009114       -4.1878093223       14.0122732620
  O        -3.8378453133       -6.1681787688       14.4064606601
  H        -4.4468203356       -5.8536792867       13.6318345913
  H        -3.2521213221       -5.3337578587       14.4766488482
  O        10.8390731696        2.4234308008       12.7688683216
  H        10.2154084340        2.7830338087       12.0650771753
  H        10.5223823030        2.8915453046       13.6000872155
  O         4.4394170560       -2.9901365985       11.3552447973
  H         4.1697338585       -3.6935394104       11.9822492875
  H         5.3040781798       -2.7222461663       11.6992681424
  O        12.6952363951       -6.9818543633        4.5690200092
  H        12.0503627018       -7.7968248574        4.7476340238
  H        12.5136194112       -6.5538213879        3.7106844938
  O        -2.7330381628       -8.6588073705        2.5587666290
  H        -3.0417865787       -7.7749573189        2.2319668282
  H        -2.2930407367       -8.6877117172        3.4254612970
  O         1.7771396552       -6.5455493254        0.5144351954
  H         1.4467407672       -7.4304660557        0.2400343792
  H         2.2342122238       -6.1463453735       -0.3233372550
  N         2.7022968700       -1.0753768392       12.7270831359
  H         2.8077948804       -0.1048026523       12.3032306968
  H         3.2391075647       -1.8112473094       12.1981193763
  H         1.7175478667       -1.2108493765       12.7131864720
  H         2.9679737654       -1.0932219092       13.7426134384
