     194
 CELL 12.4294 12.4294 12.4294 90.0 90.0 90.0 i =    63620, time =    31810.000, E =     -1097.1605396808
  O         7.9071421485        0.2576976328       11.1179975336
  H         8.1992106134       -0.6632005845       10.8728091530
  H         8.7145209057        0.7087780960       11.4362403073
  O        13.5475602506       -9.2807763965        9.3216405941
  H        12.8517220177       -8.4789416027        9.4479901855
  H        13.1252873622      -10.1705877890        9.5271123633
  O        10.3546835038      -10.7914464194       11.5355480516
  H        10.8096647412       -9.9678000468       11.9162129021
  H        11.1282259549      -11.1439839733       10.9610886022
  O         5.5206526727       -2.3882231698       12.9440030081
  H         5.2493316525       -3.3458717675       13.2205814271
  H         4.6429634373       -1.8628923306       12.9190314708
  O        -0.2813945198       -9.1421553613       12.7317560861
  H        -0.0371023973       -9.6310152998       13.5258529267
  H         0.5831823698       -9.1293298005       12.2302807813
  O        13.7567653429       -4.8977787157       21.5678999086
  H        14.4804711886       -5.4730287015       21.2827867357
  H        14.3416663998       -4.1112911724       21.8292522906
  O         9.9127781616        0.5692062866        1.9487248842
  H         9.9691276870        1.4902792445        2.2599946031
  H        10.3292218740        0.6487013869        1.0673356019
  O        14.7530135860        3.5146957231       11.8641312009
  H        14.7414729796        3.4518089316       10.8868156241
  H        14.6787577990        4.4680602087       12.0189958101
  O         7.0416934951       -6.3512884185        2.0367052010
  H         7.2781571707       -7.2714197421        1.8177415071
  H         7.0544391129       -6.1472671454        2.9971198482
  O        10.6219040365       -1.0876913837        8.3074190718
  H        10.2551875599       -1.5096931658        9.1166950979
  H        11.2210895973       -1.7447177909        7.9032772354
  O        10.9692250636       -7.5399002817        4.0718007424
  H        11.6297949250       -6.8893388933        3.8080463471
  H        11.5380517563       -8.2103860982        4.4258486798
  O         6.6646573226        2.2166111771        9.1980525108
  H         6.2238184613        2.0156846294        8.3048005408
  H         6.8135797471        1.3370288303        9.5493172968
  O         3.2513025075       -0.7322656197       13.3085261256
  H         2.6883595044       -0.9231319146       14.1317435082
  H         3.2665703060        0.2690259907       13.3052203665
  O        12.2460851469       -7.0217339391        9.7338562102
  H        12.5085765389       -6.1410837391        9.5368703292
  H        11.6457444585       -7.1219574942       10.4493310896
  O         9.1050224151       -2.2027162334       10.2736011119
  H         8.5548706168       -3.0270527787       10.0499671161
  H         9.2743954130       -2.2828623329       11.2459776168
  O        13.9178611471       -1.2440370933       11.2668807751
  H        14.2954750079       -1.9169767465       10.6131524250
  H        14.5841041876       -1.0609792019       12.0433479172
  O        12.8823361909       -5.6486478209       13.7541809824
  H        12.0633304227       -5.9803025656       13.2718624293
  H        12.9736216358       -4.6439706257       13.8249445137
  O        12.8673600169        1.8405429301       15.1131432151
  H        13.6613355231        2.4144949035       15.2864805720
  H        12.4089917811        1.9210073099       15.9423188258
  O        10.0886691690        5.7005393145        7.6110416608
  H         9.5915393178        4.9334545045        7.2344796127
  H        10.6970276395        5.3486182805        8.2435464341
  O         6.7004501157      -10.7411241701       13.0692088531
  H         6.9705537390      -11.3135752569       12.3117223224
  H         5.6985369762      -10.6601877237       13.0161941184
  O        13.6067607293       -0.9630096842        2.8183663295
  H        13.5789163346       -1.2823651440        3.7221464935
  H        13.4007795880        0.0874581627        2.7739340479
  O         7.9351611654        5.6088340045       10.2169540960
  H         8.4759801546        4.9992248573        9.7943633264
  H         7.0869077429        5.1663592123       10.2497510878
  O        16.5050972460       -0.6399397566       19.5654468265
  H        17.3082970702       -0.8287351636       20.1759741403
  H        16.5022712573       -1.4324303389       18.9110985535
  O         4.5525127240       -3.0063387279        5.5943352131
  H         5.4202558043       -2.8308019599        5.0528486971
  H         4.8648187004       -3.6470082255        6.3845221502
  O         6.9426998948       -2.2801222657        4.3362634409
  H         7.2673256759       -3.2328290075        4.3344383699
  H         7.2633684059       -1.8128747231        5.1550041184
  O        14.7197180160       -6.2962528335       12.1301754356
  H        14.6011132487       -6.0001338395       11.2339010250
  H        13.9766140086       -5.9619847990       12.6291872212
  O        17.7529705956       -8.2715396258       10.4666855304
  H        17.2690475117       -8.3517354680       11.3061402988
  H        17.9348042405       -9.1907695747       10.1312584790
  O        12.1616588738       -3.2242929748       19.8225418900
  H        12.4502912481       -2.7080440365       19.0216771913
  H        12.7258998908       -4.0078615708       20.0433244756
  O         5.6583818692       -4.6856672012        7.4059714082
  H         5.1405219860       -5.4568038023        7.8055626413
  H         6.4081641913       -4.4461176080        7.8972308760
  O         9.5654235251       -9.5787657104       15.3679251004
  H        10.0974352696       -8.9452541428       15.8775661469
  H         9.1848351585       -9.1173474065       14.5835900036
  O         5.6248560348       -2.7746625655       10.2287695022
  H         6.1629827406       -3.5423882185        9.9408134275
  H         5.6883786419       -2.7249279105       11.2211272560
  O        10.0590900264       -1.3070530389       16.3507770220
  H        10.5114884993       -0.6737276686       15.7010160879
  H         9.2292820865       -0.8162301757       16.5223483182
  O         9.7731498053       -4.1556781114        7.0230860529
  H         9.7941817465       -5.0761761529        7.3319325781
  H        10.7344567019       -3.8456989280        7.2709446363
  O         8.2255604343       -1.7679986564        6.6746275427
  H         8.7233767684       -2.6157215586        6.8188492606
  H         8.7514728388       -0.9786738951        6.8609278110
  O        22.4268691449        1.5566010807        7.0908553400
  H        22.1391020935        2.1439139140        7.8779947872
  H        22.8059719637        0.7344243068        7.5109333850
  O        16.3211078593        3.3166948841        5.1916992405
  H        15.7844946499        3.7397170450        5.9445177669
  H        16.8681026126        2.6903276181        5.7281575474
  O        16.4473456867       -5.1750025778       16.5176971666
  H        16.4385534993       -5.1174141662       15.5523131137
  H        16.5471604429       -4.2644582611       16.8128319740
  O        16.4712625271       -6.6470087781        8.5184520017
  H        15.8317696366       -7.1921993134        7.9682510053
  H        16.9304134309       -7.3299714453        9.0173198766
  O        12.7937236515       -6.1337133643       18.6016664931
  H        11.8212185749       -6.4738419875       18.7040424036
  H        13.0171971542       -6.1022791120       17.6544937608
  O        14.6139353851       -8.1398416794        7.1741002992
  H        14.3123592457       -8.7217936141        7.9057432910
  H        13.8451921121       -7.5492625423        6.8093849963
  O         4.7240494123       -4.8402167415        1.1643741619
  H         5.4143730539       -5.5356632997        1.3327176213
  H         4.1547778212       -5.3828920260        0.5280430483
  O        12.4886164275       -1.3126616620       18.0095994974
  H        12.9442096105       -0.5714249691       18.5112294189
  H        11.5844799762       -1.0764081796       17.7096715609
  O        10.4387089604       -4.3201935903       16.4637245187
  H        11.1899582299       -4.4557648853       17.0838172631
  H        10.3272947633       -3.3384546656       16.3095994015
  O         7.6460706246        4.3314559221        6.7903736100
  H         7.6741243056        3.4196460267        6.4684113603
  H         7.0723288984        4.7773950741        6.1416332793
  O        12.6506014245       -2.7402982821       13.2757877590
  H        12.9354736206       -2.0792031457       13.9804864126
  H        12.9612621686       -2.2497785024       12.4402638948
  O        18.1494174535        1.7269096047        6.3688124541
  H        19.0550654751        1.6335210784        5.9628045863
  H        17.6967578149        0.8644515889        6.4630549895
  O        13.7963292922        0.7770850808        7.0917306886
  H        13.5050538830        0.5863473326        7.9605790097
  H        14.7495550260        0.4590794130        7.1214509186
  O        12.3603354631        0.5184844435        9.7588095435
  H        11.6313414686       -0.1001481007        9.4344292662
  H        13.0262335540       -0.1015871375       10.1931538460
  O         8.2508064107        1.3933367836       17.4559215971
  H         8.6115989856        2.0385130410       16.7524571236
  H         8.9666728614        1.5122817831       18.1626646057
  O         6.4475965798       -0.5797007257        8.7244524799
  H         6.9898143988       -1.1019375481        8.1112331151
  H         6.1606334519       -1.1709979540        9.4552674856
  O        19.9172340699       -4.9852993855        4.6905151920
  H        20.8031834979       -5.2305599989        5.0004094987
  H        19.3205275187       -5.2410109920        5.4831521242
  O         7.8519190541       -4.3155237072        9.2335453637
  H         7.9997542147       -5.2841429020        9.3436056462
  H         8.5289984699       -4.1635178264        8.5693388756
  O         2.8531514899       -2.6771721326        9.4635534270
  H         2.7597948769       -2.1791053094        8.6040621515
  H         3.7875941293       -2.6335147087        9.7660364742
  O         9.1140257481        3.2637456235        9.1320555419
  H         8.1815766478        2.9396823176        9.0036883537
  H         9.4093631408        2.7099132579        9.9024111797
  O        12.0362080747        2.5904551497        5.5882672043
  H        11.2458723395        2.4302904929        6.2090488611
  H        12.7958956988        2.6311640237        6.2325363547
  O        10.8869996009       -6.8400974191       12.3291683533
  H        10.1555931025       -6.3723689502       12.8388446670
  H        11.1614585959       -7.6306387994       12.8170961004
  O         9.4024586136       -5.3067571734       13.9148184274
  H         9.7602953154       -5.1953456754       14.8193542339
  H         8.5192300887       -5.7111545368       14.0954007267
  O         1.4003278916       -6.3607474821       16.1837168333
  H         1.1322630399       -6.1685320401       15.1892704201
  H         2.1971431872       -5.8073471639       16.4384012607
  O        16.3987934404        1.9680569513       13.3117767276
  H        15.8129427922        2.3536176505       12.6167581269
  H        16.1477055704        2.5532856090       14.0270805221
  O         9.7348125941       -2.5995620573       12.9778249161
  H         9.5466006502       -3.5659384445       13.2269869607
  H        10.7028914271       -2.5221935216       13.1886377907
  O        18.3131932607       -7.3329333685        4.6386366237
  H        17.6377507264       -7.9081239318        4.9532159943
  H        17.7039730251       -6.5807388617        4.4348353025
  O         2.7242568552       -9.0566981193        2.8495898031
  H         2.3650842531       -8.1461866099        3.0395194567
  H         3.3402592430       -9.0565902971        3.7097376196
  O         8.2889102262       -8.5775893276        0.7006492633
  H         7.6915330417       -9.3920840051        0.7270490179
  H         8.5933344865       -8.4220368839       -0.1772565437
  N         7.4906105879       -1.1108454473       14.2511049542
  H         7.8895635220       -0.1027929501       14.0503891706
  H         8.3239019096       -1.6859758165       13.8981172358
  H         6.6037855950       -1.2679338743       13.6933265309
  H         7.2421599359       -1.3390264588       15.2276590204
