     194
 CELL 12.4294 12.4294 12.4294 90.0 90.0 90.0 i =    34820, time =    17410.000, E =     -1097.1123775303
  O        -4.7666686456        3.4954548516        8.4134297788
  H        -5.5327933893        3.6112695245        7.8053749355
  H        -3.9358720830        3.5480634998        7.9102978512
  O         1.2487813244       -8.9525862442        4.4821320828
  H         2.0394756775       -8.7126373153        3.9870623800
  H         1.6592140380       -9.3810030397        5.2824862441
  O        -2.1513050799       -8.6320468324        7.9939419385
  H        -1.5521748868       -8.0076181838        7.4710551798
  H        -1.5975638733       -9.4478613009        8.3550948127
  O        -7.3704413438       -0.2284004193        9.1459986735
  H        -7.7598416828       -1.1289338996        9.3237598058
  H        -7.8978998381        0.3888423326        9.6628665494
  O       -14.7191561572       -6.0529394179        8.9110894539
  H       -14.5435499020       -5.4376141068        9.6505994390
  H       -14.0209719549       -5.8168989871        8.3001746653
  O         0.8660716942       -3.4516388674       16.7680429772
  H         1.0359838043       -2.4561597384       16.8972810772
  H         0.8738546825       -3.7145964137       15.8011084798
  O        -2.4298617241        3.8711012943       -1.3541974027
  H        -1.4528672863        3.8364480535       -1.2730420171
  H        -2.5634006773        4.3590871504       -2.2367637307
  O        -0.2173201568        5.3116696962        6.3559101780
  H         0.4371831766        4.8901848267        5.6786669320
  H        -0.4925413928        6.2674738637        6.0957419264
  O        -7.1329584792       -3.6821648967        1.4592279113
  H        -6.6932863818       -4.4698495271        1.1602447084
  H        -7.1306294882       -3.6391326215        2.5392720824
  O        -1.9640537867       -0.5122643539        2.7648753101
  H        -2.1393244023       -0.7441931168        3.6856203056
  H        -1.6942789185       -1.3658642680        2.3822877378
  O         0.8183528520       -4.3900417322        0.9651517329
  H         1.6813305233       -4.0769076529        0.6771596427
  H         1.0504121829       -5.3245544375        1.1832172870
  O        -4.8462615711        4.7899647502        4.5991069525
  H        -4.5335073924        5.3375014993        3.8106680939
  H        -4.1060190689        4.2957089956        4.9646150932
  O        -8.9478842105        2.1690133912        9.9053178874
  H        -9.8478770718        1.8456072657       10.2397009539
  H        -8.5132241967        2.7030682267       10.6603443712
  O        -1.1093535234       -4.7361640968        5.7103098870
  H        -0.3826837614       -4.2158594270        5.2486041336
  H        -1.4127456744       -4.1155677453        6.4425853134
  O        -3.6418413974       -0.5334135292        5.0956825951
  H        -3.8962995419       -1.4241475364        5.3697298457
  H        -2.9568835114       -0.3636849313        5.7950943576
  O         1.7884315744        2.1397792534        6.7468907168
  H         2.6335759397        1.5730794492        6.5567126831
  H         2.1631107918        2.9296555866        7.1701890721
  O         1.2927116323       -0.9616453824        4.9904316897
  H         0.4685972342       -0.3922719677        4.8301673073
  H         2.0759813926       -0.4117266145        4.8436185298
  O         0.3196009590        4.0226885032       11.2372366363
  H         0.5801566071        4.7604338819       10.5753028533
  H         0.5560401572        4.4659573432       12.0856296014
  O        -1.3653208904        4.8035595514        3.4887943520
  H        -1.5486102574        3.9454529042        3.9685452012
  H        -0.9285868318        5.3045657860        4.2314568939
  O        -6.2181870966       -6.9459208845       10.5655180499
  H        -5.4628651102       -6.6951963880       11.1412594015
  H        -5.8853663625       -7.6397011646       10.0070960345
  O         0.4558061045        1.2532170831       -1.5342740923
  H         0.7605377891        0.9269089307       -0.6538562930
  H         0.3222314341        2.2497813672       -1.4434175397
  O        -4.4562229766        7.3079682067        7.2823551822
  H        -3.7509153024        7.0559812365        7.9306711794
  H        -5.0455149426        6.4783657914        7.1774699179
  O         2.3568505091       -0.8190936138       12.5995520093
  H         2.4667544259       -1.7852478636       12.7277014056
  H         3.2288857191       -0.3896772576       12.5771683376
  O        -5.5544108829       -1.7585426490       -0.0229995258
  H        -4.9549134361       -1.0900501038        0.4531738499
  H        -5.8618607929       -2.4111568675        0.6443895825
  O        -6.3898816911        3.0243705580        2.3537379272
  H        -6.2389061531        2.1188826842        2.6871650790
  H        -5.6977704922        3.5419883561        2.7708992502
  O         2.4540941905       -3.0593154405        7.3103797117
  H         2.9512344352       -3.7846434348        6.7414938766
  H         2.2006549666       -2.4331409710        6.5469875435
  O         5.8210755627       -6.7911910974        6.5608350378
  H         5.3311860438       -7.5352285275        6.9285261359
  H         6.2978342535       -7.0293305932        5.7024358337
  O         0.5343225264       -2.2116002513       10.8716355213
  H        -0.2397261925       -1.6876558031       11.1316692951
  H         1.3129948894       -1.6193450850       10.7136147775
  O        -6.9660849244       -3.4734344048        4.0054118881
  H        -7.5506683867       -3.8736890907        4.6540716132
  H        -6.0330311354       -3.3307715694        4.5563753482
  O        -1.9482881468       -4.4265704463       11.0913730143
  H        -1.0181027978       -4.2611082486       11.2638068851
  H        -2.4067845504       -3.5377858277       10.9030081663
  O        -8.1676525985        0.5539537167        6.4506545389
  H        -8.1072497059       -0.1652664742        5.7969788861
  H        -7.9519838280        0.2590155280        7.3493767459
  O        -3.4854687995        1.1887685399       11.4066334588
  H        -3.1226469958        2.0803845616       11.1821216548
  H        -3.8341812010        1.1077994903       12.3113652915
  O        -2.8961135846       -3.9627856901        3.5894881883
  H        -3.4043122280       -4.6429610596        3.1287406566
  H        -2.4373079289       -4.4510475851        4.3113100712
  O        -5.8284293553        0.9103724356        3.9695794251
  H        -6.6101260324        0.2706652123        4.0403510064
  H        -5.0927929231        0.3571798532        4.3011333581
  O         8.2607497190        0.2099320146        1.3411162624
  H         7.5336624084        0.4491693887        2.0036885164
  H         9.0103965653       -0.0945933702        1.9491071844
  O         4.7399786598        3.6886030294       -0.4735709164
  H         5.2720188167        3.2462813782        0.2880444837
  H         5.2466950652        4.4739934756       -0.7129316330
  O         3.3529463279       -3.4034171604       12.1153590048
  H         3.6415346358       -2.9375080708       11.3111438305
  H         4.1441234190       -3.3302494189       12.7968596297
  O         3.7515160570       -5.1571019734        5.8473561553
  H         3.1890064309       -5.7191583492        5.2705386894
  H         4.4072387907       -5.7276090290        6.3762546751
  O        -1.5574065884       -2.9790019277       14.0520436838
  H        -0.6845134429       -3.3944032110       13.8231765706
  H        -1.9195501242       -3.3510186096       14.8690406500
  O         2.6146767472       -6.2765748813        2.8573324220
  H         3.1413827851       -6.9822609975        3.2727903991
  H         3.1931165635       -5.8122686440        2.2068269930
  O        -8.2625016583       -2.6369698805       -2.8329876058
  H        -7.5405100291       -3.2348609883       -2.9128184644
  H        -8.8661482691       -2.8200357508       -3.5972119683
  O         2.2677800737        2.8220087175       13.1774754983
  H         1.6672483399        3.5417133557       13.6194253025
  H         3.1837457713        3.2608863453       13.2082638081
  O        -2.1304353659       -1.4222372371       11.8842927969
  H        -2.0689713453       -1.8862027633       12.7378032669
  H        -2.3359300609       -0.4836881855       12.0502033349
  O        -3.5694576357        5.8611314933        2.4428994351
  H        -3.7941764672        5.8853496505        1.5001955030
  H        -2.6172167288        5.7434769394        2.6024214208
  O        -0.5309487332        1.6106216571        8.2503595918
  H        -0.3508211557        1.3502549672        9.2153398549
  H         0.3950566973        1.5589056524        7.8453883287
  O         3.9373928067        3.8749909781        3.8674330383
  H         4.6054227061        3.6187235303        3.1886520065
  H         4.4841102403        3.6888069528        4.6373568560
  O         2.4319567661        0.8277708234        2.7295104379
  H         2.3758779392        1.7068356704        2.2891728809
  H         2.0621271831        0.2581682344        2.0472658134
  O        -0.3563999313        1.0277236611        4.5260989954
  H        -0.7825066731        0.7384014087        3.6776831314
  H         0.3498923236        1.6996775305        4.3680237361
  O        -3.9886755097        5.9634883871       12.0899279008
  H        -3.5745544342        6.8584248758       11.8529479430
  H        -3.2871928815        5.3355781064       11.7387912824
  O        -6.5799360612        2.8518786303        6.1762544800
  H        -5.9977293995        2.4708656340        5.4834276668
  H        -7.0754762844        2.0779545522        6.3954577051
  O         5.1662336200        0.5908688287        0.3611985750
  H         5.5678809568       -0.3088101798        0.2524932556
  H         5.6411788082        1.0553170417       -0.3660109249
  O        -4.6499600732       -3.1417379236        5.5543083718
  H        -4.3309197785       -3.8427903303        6.2469363516
  H        -4.0090388687       -3.2401414566        4.7973856366
  O        -8.0246696347       -0.6663283653        4.3081234594
  H        -7.7070421456       -1.5666613530        3.9658615118
  H        -8.6208114381       -0.3747444347        3.5355275915
  O        -2.6325418048        2.7069149734        5.4606774512
  H        -2.4978020314        2.7992844550        6.3987864363
  H        -2.0398400628        2.0015400062        5.1988990549
  O         0.6887853293        4.8102458811        1.5380130093
  H         1.3507199512        5.2746377705        2.1341564853
  H        -0.0658297315        4.7065933642        2.2307016605
  O        -1.8733806553       -2.8614625476        7.6642686973
  H        -2.5727737292       -2.8522658638        8.3208795605
  H        -1.0275917838       -3.2269437482        8.2333683896
  O        -3.5683245283       -2.2322617056        9.8714460627
  H        -3.1050350740       -1.7492766827       10.5926336236
  H        -4.3916393552       -2.4515660202       10.2261633342
  O       -12.2019313979       -3.9749800431        8.7392050402
  H       -11.4695689590       -3.6518202818        8.1181905780
  H       -11.9642872205       -3.3641894318        9.4823643505
  O         3.3376750794        4.0221805789        7.8580334490
  H         3.4557763823        3.4515255440        8.6845406371
  H         2.8825247609        4.8133107768        8.2825973093
  O        -2.2648486289       -0.2717662642        7.5359586481
  H        -1.8844930997       -1.2165242234        7.5242424966
  H        -1.5760978683        0.2892491812        8.0426335352
  O         3.7577850939       -6.1693109158        0.1839206381
  H         3.1230644607       -6.8032241953       -0.2271642453
  H         3.5802339449       -5.2809365631       -0.2120228700
  O       -11.4466572610       -6.8241838360       -3.2913005048
  H       -11.7592666406       -7.1120869463       -4.1510791404
  H       -11.7424845364       -5.8844701581       -3.3247049451
  O        -6.7527315016       -4.8494336072       -3.4222236064
  H        -6.7219829068       -5.7024503807       -2.9382510162
  H        -6.0499325358       -4.9020247439       -4.1001059322
  N        -4.6450021202        0.3836261920        8.9012880025
  H        -4.7322062811        1.4297626748        8.7004042283
  H        -3.9796716771       -0.1009531056        8.2101810331
  H        -5.6464058071       -0.0244326816        8.8730888133
  H        -4.1630917077        0.4087885720        9.7899992323
