     194
 CELL 12.4294 12.4294 12.4294 90.0 90.0 90.0 i =    57220, time =    28610.000, E =     -1097.1287377613
  O         4.4144322974        0.9842500607       11.9034054535
  H         4.0997753783        0.5518628041       11.0198769105
  H         5.4178728821        1.0080268855       11.8786025520
  O        10.1988410046       -8.8075673768        9.2959167053
  H         9.4220353358       -8.2276029287        9.1565992510
  H         9.9188301104       -9.7521507047        9.5274394006
  O         7.0857751165      -11.0276691969       11.0717665301
  H         7.6626215699      -10.5247252551       11.7267488889
  H         7.5547935685      -11.8643640930       10.8994242365
  O         2.4057125673       -2.3237576695       12.5476823467
  H         1.9411257665       -3.1750872996       12.6583481310
  H         1.6279626078       -1.6335210704       12.6001429298
  O        -3.7059559960       -9.3593566853       12.5631854101
  H        -3.3340638026       -9.8429433639       13.3136647931
  H        -2.8883828059       -9.0542540518       12.1453929082
  O         9.2480358800       -3.8459536317       21.3904322360
  H         8.8511617745       -4.2114265062       20.5868103666
  H        10.2292240080       -3.6538492098       21.2873086751
  O         6.8445018385        0.5206892820        1.9552239808
  H         6.7201470173        1.4556152508        2.1293719925
  H         7.6413871336        0.4917476502        1.2863269089
  O        11.1875290994        4.1223576118       11.6652003845
  H        10.7716646154        3.9910945994       10.7349617692
  H        11.7056346342        4.9964870264       11.7119235403
  O         4.6628421527       -5.4704247253        2.6564990435
  H         4.4563661352       -6.3678193273        2.3322901211
  H         4.8799719838       -5.5168028946        3.6382087276
  O         8.0960628384       -1.0459538460        8.2764369114
  H         7.2836403558       -1.1730266508        8.8442120586
  H         8.5502620310       -1.8738757962        8.3855245520
  O         8.3664937633       -7.1621782625        3.5413745146
  H         9.2436208885       -7.2897576820        3.0726089640
  H         8.1395348569       -6.2304379384        3.2848888669
  O         3.9953750496        2.6612247890        8.5758593075
  H         3.3063544254        2.9140289374        7.9006182219
  H         3.7430857091        1.7190675641        8.9146941292
  O         0.4119557962       -0.6502958442       12.6594171245
  H        -0.2629333884       -0.6980114604       13.4202483159
  H         0.5128275396        0.3585822162       12.4524919876
  O         8.1086780232       -6.8026680033        9.3878442352
  H         8.4166644482       -5.8758247086        9.4621114453
  H         7.7584283327       -7.0320716855       10.2993464363
  O         5.7880088406       -1.6900581989        9.7249691432
  H         5.3311520705       -2.4953366412        9.4762906870
  H         6.0416956292       -1.7651435447       10.6624111280
  O        11.4782268912       -1.9317375011       10.9311319178
  H        11.8767790683       -2.2853365676       10.1097596717
  H        12.1482714612       -1.3265597584       11.4237497252
  O        10.2503721041       -4.2503210744       12.0206258760
  H         9.6443929957       -4.2587763288       11.2934769350
  H        10.7460833098       -3.4293849898       11.7801559498
  O         9.8858340812        2.2079853653       14.8255247218
  H        10.7483938433        2.7087883323       14.7539225403
  H         9.6222080407        2.4505605302       15.8281694655
  O         9.1087463471        4.9698772604        6.3875392557
  H         9.2229471236        4.5072628824        5.5880757085
  H         8.6924559230        4.2612034022        6.9531589471
  O         3.1652892412       -8.9762585090       11.8096391242
  H         3.7356597140       -9.7936386666       11.8036059532
  H         2.2970577689       -9.4762387428       12.0651418050
  O        10.8102274431       -0.5105852399        1.7395958307
  H        10.7799624605       -0.7464716260        2.7177126261
  H        10.8511454160        0.4984123073        1.8135155524
  O         4.0682032545        7.3875567068       11.2784041984
  H         4.6173891178        6.8787029393       11.9094828120
  H         3.5491444134        6.7092294364       10.8655020902
  O        13.2313317718       -0.5519921598       19.7934053347
  H        13.4301646641       -1.1721830467       20.5049597829
  H        13.4569921086       -1.1951174233       19.0661773021
  O         1.8099585262       -1.9251795739        5.2301429967
  H         2.5646438346       -1.4285379214        4.8428763061
  H         2.1201270431       -2.8596634823        5.3619786473
  O         4.2302494956       -0.5176302179        4.2129902463
  H         4.7651657295       -0.9507805882        4.9141444453
  H         4.3054025842        0.4468968331        4.5217575991
  O        12.4694390733       -5.9042174225       11.4994245708
  H        12.7893941639       -5.7514760212       10.6112077449
  H        11.7348034003       -5.2657938629       11.6862556943
  O        15.5796317010       -6.8858907023        9.5235564804
  H        15.5356426317       -7.7910170936        9.9933243343
  H        16.3456139392       -6.9450972408        8.9300532022
  O        10.8160001265       -3.2794275579       18.1828427366
  H        10.0347416408       -3.7680396497       18.4289520026
  H        10.5679135556       -2.4195687099       17.8042445124
  O         2.3936118181       -4.5683219808        5.8005895185
  H         2.1681507634       -5.1370858893        5.0326803711
  H         1.7834274009       -4.8750111016        6.5345076901
  O         6.2270255438       -9.2561751273       15.2834715991
  H         6.8805873703       -8.6104134842       15.6857240251
  H         5.6182971240       -8.6463238188       14.8139190904
  O         2.2466044058       -2.2598654657        9.6121196251
  H         2.9378938350       -2.8053347033        9.1243201550
  H         2.4244804632       -2.2840776818       10.5172460081
  O         7.4476130297       -1.7223948285       16.3367753135
  H         7.0375684686       -1.0876208924       15.7101932102
  H         7.0474165539       -1.6591911486       17.2130954607
  O         5.6865983796       -6.2315914070        7.8100314907
  H         5.6269740270       -7.0166095244        7.1952025702
  H         6.5034811953       -6.4870512004        8.2289523046
  O         5.6732356380       -2.2635249109        6.1173608416
  H         5.3912608877       -3.2450515738        5.8974665766
  H         5.7334327240       -2.2257077839        7.0478464013
  O        20.1691822801        0.9759166806        6.5229030059
  H        19.8134774198        1.5392114831        7.2530468417
  H        20.4813223419        0.1320735337        7.0011272374
  O        13.1366513656        3.6197126308        5.4293912201
  H        12.4691218627        4.0079448465        6.0676480084
  H        13.6152544321        2.8638614150        5.8716836788
  O        11.5921828268       -3.9758643250       15.3499647970
  H        12.5297399922       -3.8685835446       15.1180321834
  H        11.4251357396       -3.9061464499       16.3303041871
  O        13.4747622673       -5.5539718841        8.3302787958
  H        12.7279624337       -6.1488883360        8.1170968564
  H        14.2395906604       -6.1559951671        8.5541558460
  O         8.4852304872       -4.7742476186       18.9808051160
  H         8.8387328482       -5.7297027218       18.7730665807
  H         7.8941314805       -4.6480468106       18.2272553034
  O        11.7948571609       -7.4898195429        7.4559534202
  H        11.4089005710       -8.1033631533        8.0812299662
  H        11.0153334640       -7.1954955921        6.8914136408
  O         1.5654113556       -4.8844692527        1.5489505723
  H         2.5589027772       -5.0263508635        1.6380147173
  H         1.2803160407       -5.2839381620        0.7041954145
  O        10.1497879726       -1.0336286116       16.7068514943
  H        10.3758242015       -0.3807528433       17.4415006049
  H         9.1440277751       -1.0646597319       16.7358944899
  O         8.6591053619       -4.0203487620       15.6327442745
  H         9.5628702293       -3.6321241961       15.3945064992
  H         8.1616257734       -3.2182773209       15.8004045466
  O         4.6452490865        4.3558659304        6.3318668819
  H         4.3044239226        4.6412319005        5.4113570036
  H         4.8271071847        3.3909101359        6.3106261164
  O         8.8381407766       -0.6041009133       12.4066085578
  H         9.4787789695       -0.7016404162       13.2092447692
  H         9.4288118945       -1.0480959020       11.7527786176
  O        14.8356827795        1.3621853776        5.9495908336
  H        15.7544770342        1.5733332970        6.2217493220
  H        14.4608140828        0.6699498175        6.6119386795
  O        10.8698421318        0.8151021936        6.5284333162
  H        10.4831856061        1.0593321306        7.3950410097
  H        11.6788917361        0.2715894222        6.8218941422
  O         9.9709695536        0.6076444900        9.2825072232
  H         9.1785117858       -0.0472775510        9.2265073416
  H        10.8061269434        0.1931025741        9.5812719152
  O         5.3146799393        1.7858415169       17.6336974977
  H         5.6382540701        2.1927394565       16.7623359064
  H         6.1108747839        1.2805774896       18.0341011388
  O         3.5988570047        0.0809984568        9.2379898741
  H         4.5315358723       -0.2981079849        9.1421075625
  H         2.9374130917       -0.6461415695        9.3701005416
  O        17.4349730542       -4.8779423996        5.5096327113
  H        17.8062967336       -5.3048227215        6.3181895492
  H        16.4783157849       -4.6367454054        5.6349965210
  O         4.4014151918       -3.8480042127        8.7687606471
  H         4.0755467987       -4.2463340278        9.6665360490
  H         4.7332285519       -4.6264421145        8.2695015011
  O        -0.5986061877       -3.1625117659        8.1892019907
  H        -0.8234162662       -3.1300187915        7.2453972467
  H         0.1037503662       -3.8546945230        8.2082363063
  O         6.8966443150        2.6420060086        8.5178891823
  H         5.9517937529        2.7144781369        8.3351602558
  H         6.9716768863        2.3690494766        9.4801733651
  O         9.5210760434        2.7962568421        5.1050705599
  H         8.9788500306        2.2547630290        5.7147435458
  H        10.4549306590        2.5989472312        5.4217066130
  O         7.0895316630       -7.1992239152       11.8468362144
  H         7.3076965334       -6.4939265989       12.5173453616
  H         7.6224642994       -7.9659133389       12.2639646031
  O         6.7145993099       -4.8838211801       13.4154289711
  H         7.3098806729       -4.5074192948       14.0719229000
  H         5.9649254016       -5.0994829899       14.0617982934
  O        -1.4792680818       -6.5126650695       14.2833898218
  H        -1.9896760474       -6.6543692954       13.4461738843
  H        -1.4823899920       -5.5456102964       14.5578133729
  O        13.1053279326        2.2311216393       12.3317592972
  H        12.3646396701        2.8318926563       12.0168923583
  H        12.7948524429        2.3960552643       13.2612831418
  O         6.5150951804       -2.1380806417       12.4100034329
  H         6.6575393978       -3.1073039237       12.5660195954
  H         7.4046611288       -1.6037382220       12.5185983873
  O        14.6525458452       -6.5942339131        4.0951029010
  H        14.2292075148       -7.3491653314        4.6417734243
  H        14.0001022874       -6.2351619258        3.3855285356
  O        -0.0840494569       -8.8564664120        2.4760558045
  H        -0.1719951826       -7.9335702067        2.2085710315
  H         0.1864029445       -8.8256304277        3.4389513681
  O         4.5984340833       -7.5977478553        1.0435898289
  H         3.9047762972       -7.9744850473        0.4258719422
  H         5.3550152516       -7.4649025714        0.4641475606
  N         4.4000638229       -1.1006591406       13.8428132777
  H         4.3445882644       -0.3362431824       13.1646488424
  H         5.3537676315       -1.4240269708       13.6926499988
  H         3.6887615118       -1.8333068264       13.6696949071
  H         4.3498457755       -0.8133397116       14.8717078947
