     194
 CELL 12.4294 12.4294 12.4294 90.0 90.0 90.0 i =    46820, time =    23410.000, E =     -1097.1318397869
  O        -0.5575467488        2.0559803761       10.0866538455
  H        -0.9299107954        1.9136856934        9.1965944831
  H         0.3318265222        2.4141047833       10.0180310158
  O         5.8673866351      -10.5241675919        7.3100582660
  H         5.6191330059       -9.7099005140        6.7404101671
  H         6.7248232861      -10.8649254057        7.0470024205
  O         2.2968840790      -10.0716359299       10.1636733110
  H         3.1315470017       -9.4630256474       10.0951306851
  H         2.7288172796      -10.8645637142        9.8011005562
  O        -2.9790830872       -1.3113396802       11.3963137554
  H        -3.1852114381       -2.2680129144       11.3813837853
  H        -3.5356702908       -1.0232492037       12.1260671858
  O        -7.9236573876       -9.0249798305       11.0235227676
  H        -7.9723909540       -9.2143581344       12.0173031326
  H        -6.9660851710       -9.0687185056       10.7178299476
  O         5.2529940912       -3.9624520530       19.1573956345
  H         5.0452418241       -4.3403604657       18.3032736450
  H         6.1557053189       -3.6015369070       19.2022995612
  O         1.4887813506        1.7793441139        0.3500151020
  H         2.0290892504        2.3679495973        0.8834583941
  H         1.9151621980        2.0187211627       -0.5059575716
  O         6.8407897826        3.5566778813        9.1420116050
  H         6.3954225210        2.9782639182        8.4531947012
  H         7.2232810208        4.3171643174        8.6213908431
  O        -0.2380667973       -3.1433961965        1.6584548598
  H        -1.1514466618       -3.6427783606        1.6809019348
  H         0.0708493144       -3.0841005698        2.5667484196
  O         3.3356521469       -1.8285352521        6.4090917627
  H         2.4568747243       -1.8986452025        6.7983555545
  H         3.7680734821       -2.6721787776        6.6943566820
  O         4.0188280096       -6.1694261749        2.1796339148
  H         4.6987357655       -5.7768914133        1.5227252499
  H         4.6127809408       -6.7860604248        2.7173958736
  O        -0.4679873373        2.9346049232        7.3256691990
  H        -0.6535353221        3.6349353113        6.6417939177
  H        -1.1224203249        2.2082240772        7.0924535495
  O        -4.5982163529        0.3855353664       13.1604197730
  H        -5.4975713446        0.2791394287       13.5815822618
  H        -3.9670302599        0.9774207773       13.5742749453
  O         3.8277861850       -6.1034822513        7.6793982512
  H         4.4620646423       -5.3866329565        7.4712453371
  H         3.7296326242       -6.1557466756        8.6293100709
  O         1.3244945207       -1.6015871577        8.1068277273
  H         0.6338249319       -2.3112896202        8.1403654417
  H         1.6480255404       -1.4928935924        9.0604618837
  O         6.3471654246        0.7390675029       10.7409803294
  H         6.9473883547        0.4793512912       10.0010232948
  H         6.9003943693        0.6773529798       11.5295975745
  O         5.0846558617       -3.6218241239       10.0719627436
  H         4.1877812275       -3.8863405342       10.3568274004
  H         4.9758080069       -2.6776516382       10.0807854885
  O         4.6405352479        2.6827572421       13.9790746520
  H         5.4647843997        3.0389146781       13.5726651398
  H         4.7207108463        3.1346220097       14.8442489702
  O         4.3336765881        3.9106709859        6.4900391456
  H         3.4191189237        3.4632197669        6.5297191585
  H         4.2025327364        4.8350915798        6.9521433398
  O        -1.0923728531       -8.8877470780       12.5413084813
  H        -0.3377871226       -9.4821816947       12.7145895363
  H        -1.5170270549       -9.2439966013       11.7350937132
  O         5.4192927892        0.0437308615        1.7655315531
  H         4.9758896879       -0.4055032220        2.5278621941
  H         5.1848109628        1.0102449740        1.9201346239
  O         0.1691054250        6.9820026636       10.0205309668
  H         1.1933403000        6.7979712129       10.1051071449
  H        -0.2343316291        6.0930267422        9.7583193221
  O         8.1887094770       -2.0459367116       15.2223253691
  H         7.4557984357       -2.2551886234       14.5796476335
  H         8.8004672498       -1.4090462678       14.7218025707
  O        -1.5909750415       -0.7726934077        2.7401702216
  H        -1.1668559413        0.0931351698        2.7570130298
  H        -0.8769621294       -1.3920440113        2.3104969071
  O        -1.1694575669        1.9972075799        3.8158373733
  H        -0.9973693752        1.3909551028        4.5781596132
  H        -0.2853504889        2.4083547971        3.6871502647
  O         7.4062243837       -5.1733175351        9.9992839399
  H         7.7270689948       -5.7285127458        9.2962326716
  H         6.6752760462       -4.5328657006        9.7491804193
  O        10.6793356566       -7.5972786390        9.3805772191
  H        10.2686060306       -8.2540406179        9.9889137740
  H        11.1000650902       -8.2065450614        8.7297718393
  O         6.2697874685       -2.6345284922       13.2788205583
  H         5.3129602305       -2.8587101551       13.5293657954
  H         6.1066459498       -2.2685895385       12.3911525055
  O        -2.9930955404       -4.0273728601        6.6743529832
  H        -3.4320801881       -4.8651167238        7.0365930826
  H        -2.2428030181       -3.9125332286        7.3096177725
  O         2.0791150298       -7.6573330653       13.8428603644
  H         2.7168676393       -7.0116501232       14.1893196522
  H         1.2376446296       -7.2270925654       13.5521449785
  O        -4.3002982093       -0.3549516455        9.0215547506
  H        -4.6587682253       -1.0854477382        8.4680719758
  H        -4.0215093639       -0.7520223430        9.9295911360
  O         1.7657864545       -0.5480396876       14.5593381609
  H         1.7917490297        0.0963101905       13.7657134489
  H         2.0081741185        0.0184131060       15.3503637555
  O         1.4155781553       -5.4101636231        6.1119543728
  H         0.8877105799       -6.1587460244        5.8747309536
  H         2.0024454720       -5.6466384082        6.9063180100
  O        -0.3441415389       -0.1746509603        6.0771285966
  H        -0.7216288526       -0.9849001632        5.5818930927
  H         0.2952187644       -0.5114610737        6.6988567502
  O        14.7842436609        0.9744806208        4.1069498674
  H        14.5802611696        1.1363772615        5.0819213887
  H        15.6718891664        0.4185539625        4.2650822612
  O         9.3191043140        2.6568884350        1.7137784034
  H         9.9758063798        2.4065207460        2.4067068581
  H         9.9798184207        2.8469840348        1.0227340894
  O         9.6409871807       -4.4147939759       14.5434122982
  H         9.3302104503       -4.5672045582       13.5623087209
  H         9.1023070246       -3.6418569585       14.8800777731
  O         8.4756823898       -6.6005441125        8.0035441367
  H         8.3410177965       -6.8938385132        7.0609929112
  H         9.3371907865       -7.0271397265        8.3393164793
  O         3.6868048818       -4.4576255844       16.6711276530
  H         3.6114262011       -5.2511189487       16.0342688532
  H         2.8804179659       -4.6018999170       17.2941903272
  O         7.9977052287       -7.7131223200        5.4032621866
  H         8.2258519239       -8.6866140922        5.4248160439
  H         8.7890915844       -7.3843845720        4.8737620482
  O        -3.1692433184       -4.2840860638       -0.6192595010
  H        -2.3192024563       -4.7508067034       -0.6677774878
  H        -3.7468633041       -4.8515347662       -1.2160162209
  O         4.3353646979       -0.6595339897       16.8138491349
  H         5.2885841221       -0.6386690759       17.1835157013
  H         3.8965472401       -1.3100448208       17.4418822177
  O         3.7567942197       -2.7538588939       14.4747747276
  H         3.7665028135       -3.2237692527       15.3742557135
  H         3.1260002482       -1.9692757056       14.6050332414
  O        -0.1786720248        4.8533193930        5.2766489331
  H        -0.8997079027        5.2635114842        4.7019846259
  H         0.2058214616        4.2455478857        4.5955953868
  O         4.5202768920       -0.8261534192       11.6044318588
  H         4.4646791584       -0.5673660751       12.5489209201
  H         5.1707404115       -0.2580878541       11.1616696877
  O         8.7270896808        1.8824010205        5.1124097205
  H         9.5668241382        2.0790698116        4.6322626814
  H         9.0421996652        1.4529864357        5.9125038843
  O         7.0120530767       -0.4651231999        4.9352506701
  H         7.5254645018        0.3862752401        4.8500059441
  H         7.4170303195       -1.0036036312        4.2482419235
  O         3.5764530785        0.7221461443        8.3034844486
  H         3.7625505827       -0.1232287615        7.8825488795
  H         4.4407826547        1.1741353781        8.2518030496
  O         1.1308594231        3.2552698362       15.7352669034
  H         1.4902168035        3.8699413963       15.0766506460
  H         1.7749918332        2.5163658006       16.0533707897
  O        -2.2023059883        0.7648019437        7.4182873830
  H        -1.5320752462        0.1635458113        7.0229101112
  H        -2.9360338196        0.4111400573        7.9972295026
  O        11.0464877868       -2.7204590851        4.7676966994
  H        10.3606314209       -3.1239953998        5.4149101258
  H        10.5295758277       -2.2045389582        4.1222906165
  O        -0.4106161389       -3.7083107510        7.8739715216
  H        -0.2259507996       -4.3101816157        8.7053554692
  H         0.1623447624       -4.1096843628        7.1858389482
  O        -5.1549978640       -2.2365938099        7.2633392277
  H        -4.3980887990       -2.8902635503        7.2577459391
  H        -4.9901957132       -1.5499531260        6.4460114023
  O         2.2694040076        2.2849496844        6.5248426353
  H         1.3677143043        2.4707814859        6.8515053653
  H         2.5816577218        1.6764906406        7.2626932830
  O         5.2893970662        4.4828825494        3.9628323837
  H         6.2366663887        4.6004098146        4.2154810359
  H         4.7612064425        4.4373551067        4.7660833461
  O         3.0242801543       -5.9802460923       10.5664986011
  H         2.9494419398       -5.3027888930       11.2940607370
  H         3.3466023840       -6.6955019432       11.0788064232
  O         2.2547136913       -4.0081849723       12.5607542409
  H         2.7918681963       -3.6698672778       13.3485942708
  H         1.3417931145       -3.9923002741       12.8826740931
  O        -6.4167707002       -5.5664846563       12.5035049238
  H        -6.0593075339       -5.4480429094       11.6378607141
  H        -6.0510076001       -4.7279222594       12.8980913964
  O         8.9279515528        3.3620075988       10.9271516180
  H         8.1890770215        3.0540844212       10.3123240902
  H         8.3714854962        3.8667000823       11.6237931242
  O         2.1189913163       -1.7557432247       11.0196502904
  H         2.0987181492       -2.5792064633       11.5713161459
  H         2.9987925016       -1.2765777672       11.1691194257
  O        10.1494543522       -6.7616355001        3.4316506679
  H        10.4252424750       -7.2935282150        2.6624843061
  H         9.7919289387       -5.9173788534        3.0185081590
  O        -5.5578927278       -8.3533055880        0.7277948285
  H        -5.7617062212       -7.4182596473        0.8603811359
  H        -4.8247381370       -8.6097958674        1.2952396611
  O        -0.8626013754       -5.8733198093        0.1673107396
  H        -0.9086351296       -6.8738411074        0.2738439911
  H        -0.3443890165       -5.8046248121       -0.7035082408
  N        -0.2342439439       -0.3208744308       11.6508908733
  H        -0.1356989581        0.4807454821       10.9544440865
  H         0.3821313699       -1.1232274509       11.4312602406
  H        -1.1756323601       -0.6940984749       11.6179718644
  H        -0.0270635991       -0.0688489126       12.5635102856
