     194
 CELL 12.4294 12.4294 12.4294 90.0 90.0 90.0 i =    35220, time =    17610.000, E =     -1097.1547933968
  O        -4.8072203865        3.2907747822        8.3261592824
  H        -5.4296567787        3.2356062410        7.5423961826
  H        -3.9022709068        3.1198544947        7.9704936863
  O         1.1395328791       -9.1961749092        5.4422156148
  H         1.8880705541       -9.1215268202        4.8483235289
  H         1.6149066519       -9.6339922108        6.2180411643
  O        -1.9674431324       -9.4079383767        7.6142492168
  H        -1.5008200436       -8.5320749011        7.3280479288
  H        -1.3422348950      -10.2435838280        7.7847726472
  O        -7.1197213571        0.0224983692        9.5664308690
  H        -7.3372668223       -0.9099225801        9.6825272366
  H        -7.9185810455        0.5757004199        9.7175203911
  O       -14.7197767552       -6.0808242932        9.0201313613
  H       -14.4270212185       -5.8555415576        9.9542170702
  H       -13.8933545962       -5.9169889401        8.5136540306
  O         1.0887056052       -3.8844248724       16.5342238376
  H         1.1439531942       -2.9727681432       16.8937926323
  H         1.0367027010       -3.7913021930       15.5784762934
  O        -1.9595803004        3.6600196090       -2.0126916638
  H        -1.1180513641        3.9974204938       -1.7879508074
  H        -1.9760021585        3.5196796185       -2.9884065500
  O        -0.3290621699        5.2713242615        6.9049309916
  H         0.0075846061        4.7542261263        6.1812625947
  H        -0.7743752046        6.0381898840        6.4964175603
  O        -6.1465426970       -4.0777224162        1.6262898247
  H        -6.5467687479       -4.8792032942        1.2948812502
  H        -6.7823026129       -3.7583147779        2.3310368797
  O        -1.9966449746       -0.2329721948        3.0885911513
  H        -2.5933990620       -0.5948037674        3.7901034141
  H        -1.4861752759       -0.9559039790        2.7645151543
  O         1.0279704925       -4.3336062748        1.3461032523
  H         1.9062080506       -3.9947389185        1.0722360170
  H         0.9798943335       -5.3137446842        1.3664162087
  O        -5.0414864432        4.4936227932        4.0909288454
  H        -4.5527398965        5.0392642807        3.3902322059
  H        -4.3965743451        3.8965409793        4.4846935801
  O        -8.8128562177        1.8687251536       10.2427474999
  H        -9.6923938269        1.6819641615       10.6245398108
  H        -8.2303936852        2.4567061251       10.7886959262
  O        -1.0683485767       -4.6724275770        5.4914785853
  H        -0.1872947447       -4.5069875069        5.0848854256
  H        -1.2920043179       -3.9280680696        6.1216380473
  O        -3.6049986175       -0.5121782208        5.4017121789
  H        -3.7942595130       -1.5069638815        5.4017297704
  H        -3.1197001091       -0.4476941179        6.2663079000
  O         2.2420199669        1.7607293935        7.6466843604
  H         2.8424923600        0.9947843805        7.4378814483
  H         2.6836890744        2.2636902827        8.3854914521
  O         1.5125720014       -1.2038845685        5.4040069326
  H         0.6625838196       -0.7547264654        5.5540823161
  H         2.0591548645       -0.6500882014        4.7814148990
  O         0.4656451557        4.6818874701       11.3375231742
  H         0.9814365899        5.1990125014       10.6976346327
  H         0.6575514259        5.0733119088       12.2417802330
  O        -0.8407910874        3.5308466825        3.3616299115
  H        -1.5835733272        2.9235100586        3.6424252712
  H        -0.2623602599        3.5719038868        4.1540395093
  O        -5.6488227840       -7.1741079707       10.0329651313
  H        -5.0554128646       -7.1932116483       10.8336117868
  H        -5.1958826053       -7.6587554235        9.2902943145
  O         0.9945449093        1.5206593749       -1.1923104987
  H         1.1497721920        1.2267302541       -0.2694285887
  H         0.8242157772        2.4988669813       -1.1848203455
  O        -4.4833084165        7.2686375677        7.2089986129
  H        -3.7395350466        6.7358156891        7.6060638896
  H        -5.2318931692        6.6120908921        6.9860033246
  O         2.4520779275       -0.4657492240       13.2106288401
  H         2.4235132217       -1.4239778460       12.9985547718
  H         3.4454155790       -0.3260882221       13.2675442420
  O        -5.4222127672       -1.8844764651        0.0019074345
  H        -4.8623921424       -1.1583440805        0.4290557382
  H        -5.3600157016       -2.6320140055        0.6786893424
  O        -6.7797199634        3.0049099704        2.0916094856
  H        -6.7237689709        2.1304870089        1.6628683372
  H        -5.9780359070        3.0508838433        2.6039896637
  O         2.5897433805       -2.6233062891        7.3113758877
  H         3.0467976215       -3.2694878909        6.7301884343
  H         2.2939978515       -1.9661882528        6.6348676188
  O         5.8362349355       -6.6309151271        5.9815771083
  H         5.1885118609       -7.0901159753        6.5648590401
  H         6.2474474602       -7.2776573060        5.3791204777
  O         0.8520725129       -2.0089176534       11.1589186422
  H         0.0880623057       -1.3862938428       11.3100142742
  H         1.5506147830       -1.4677124351       10.8187446580
  O        -7.3521635759       -3.0522940836        3.7509362972
  H        -8.1388738102       -3.6238483287        4.2051946087
  H        -6.5477210537       -3.1921730354        4.3364311444
  O        -2.2432470292       -4.7652535236       11.4659945387
  H        -1.6287537151       -4.3835107502       12.0529660271
  H        -2.5839280166       -3.8942603959       11.0906244770
  O        -8.1352328921        0.2772008749        6.9365429148
  H        -8.0089052558       -0.1404661622        6.0434584158
  H        -7.5380728159       -0.1248915108        7.6669913393
  O        -2.8300506007        1.5631903150       11.8778568485
  H        -2.6348989458        2.4338757693       11.4054771770
  H        -3.4825453736        1.6977627861       12.5806811455
  O        -2.6431837231       -4.2860746742        3.1602697286
  H        -2.7345345095       -5.1527183870        2.6778833034
  H        -2.1642154796       -4.4890784834        3.9907398043
  O        -5.4263477275        0.9603768670        3.6382377271
  H        -6.2719714622        0.4988179544        3.8088103659
  H        -4.8800177903        0.4833323705        4.2618477802
  O         8.2469139187        0.0682456478        1.2887579071
  H         7.6727762841        0.3522972706        2.0643359273
  H         9.0776333842       -0.2291281429        1.6960677018
  O         5.0387355803        3.9560863146       -0.6215126135
  H         5.5207342676        3.5580427639        0.1276184618
  H         5.7006587144        4.2162471118       -1.3199299168
  O         3.7624545875       -3.4454947450       12.5553870348
  H         3.8418148393       -3.1008309519       11.5968784862
  H         4.6959229380       -3.5623315026       12.9036906473
  O         3.7217767036       -4.7615792253        5.6503125627
  H         3.2536662728       -5.3398179054        5.0007498403
  H         4.5695968924       -5.2983018330        5.8221045542
  O        -1.3718278259       -2.5665452073       13.6935719073
  H        -0.4043219520       -2.8028222123       13.6923295409
  H        -1.8176942233       -3.2423068924       14.3387831786
  O         2.9834718267       -6.6214089688        3.4022218819
  H         3.5525227116       -7.2195205667        3.9303790606
  H         3.5553032950       -6.2897062282        2.6535120085
  O        -8.2389782522       -2.6276062031       -2.5104051261
  H        -7.4779712866       -3.2915325939       -2.6638297938
  H        -8.7511324797       -2.6320848505       -3.3198664280
  O         2.6083946447        3.1399153256       13.7174579466
  H         2.2126485629        3.9908895105       13.5886653681
  H         3.3309607365        3.1946412452       13.1241452091
  O        -1.5371007578       -0.8623015550       11.6738052995
  H        -1.6192199872       -1.3481602590       12.4989799523
  H        -1.6171046596        0.0684607335       11.8683137367
  O        -2.9102509382        5.6740300510        2.2655202499
  H        -3.1203114450        5.3612142435        1.3313218709
  H        -2.2447744556        5.0858676506        2.6501069945
  O        -0.3332869992        1.1660701450        8.4246026321
  H        -0.2432095614        1.2676830649        9.3801825853
  H         0.5927850503        1.4364499886        7.9724034480
  O         3.6335995112        3.2687444748        4.2144843116
  H         4.0796515000        3.2089082040        3.3275347209
  H         4.3136858364        2.9377077282        4.8484422655
  O         2.3881570023        0.5855235249        3.2371843907
  H         2.5984552609        1.4782834392        2.8570015523
  H         2.1895418010        0.0388300885        2.4259634717
  O        -0.4825761616        0.9163613139        5.3505251762
  H        -0.8138819222        0.6423814763        4.4542297989
  H         0.2282781659        1.5737976080        5.2953079736
  O        -3.6440828099        5.3721245773       11.9774144422
  H        -3.4166760143        6.2796681852       11.7120712503
  H        -3.0594586571        4.7796302508       11.3404748537
  O        -6.5838384316        2.5755573430        5.9050791055
  H        -5.9105768169        2.0912580995        5.3202837329
  H        -7.0490810684        1.8410722400        6.4061374222
  O         5.1316656070        0.2895137220        0.4043645441
  H         5.7308611812       -0.4925055923        0.4305395800
  H         4.9382145204        0.2927483297       -0.5573606472
  O        -4.7445702151       -3.2837423533        4.9182415771
  H        -4.5291913248       -3.9173012375        5.6046443425
  H        -4.1970950703       -3.4990841461        4.1539171954
  O        -7.7650342338       -0.3614626577        4.3308259051
  H        -7.6669762258       -1.3300879695        4.0911043450
  H        -8.4832298610       -0.0976262270        3.7203298954
  O        -3.0863865218        2.3764895696        4.9155485088
  H        -2.5158547426        2.4614040217        5.7787755070
  H        -3.0094134503        1.4486545509        4.6480127410
  O         0.7915195576        5.4463854415        1.8014142009
  H         1.5690483445        5.4395828160        2.4364992263
  H         0.1977418507        4.6959424761        2.1512200632
  O        -2.0154343034       -3.2169340695        7.8766931288
  H        -2.6257424530       -3.9552169674        8.2696657278
  H        -1.1544189231       -3.4308154327        8.3489960033
  O        -3.4799011546       -2.5577432032       10.5401481687
  H        -2.9301158935       -1.8006728055       10.5703259070
  H        -4.2845770672       -2.3869259586       11.1310552320
  O       -11.7730622664       -3.6518582336        8.7777224191
  H       -11.1197159405       -3.1191310801        8.2182861611
  H       -11.7217693580       -3.2556250416        9.7856399364
  O         3.8412653944        4.8887924798        7.9881091092
  H         3.9921010626        4.7005990297        8.9345630716
  H         3.2594032467        5.6506575216        8.0092535206
  O        -2.5457918979       -0.6643351930        8.1118130189
  H        -2.2622500712       -1.7038814208        8.0334218221
  H        -1.6760505862       -0.2241478735        8.1051004618
  O         4.0921313700       -6.1277732799        1.0076609450
  H         4.0139711021       -6.9577871197        0.4905048688
  H         3.6945934113       -5.3958304380        0.5118094248
  O       -10.8948009297       -6.3158896076       -3.4678074039
  H       -11.3196965803       -6.7434675308       -4.3096636426
  H       -11.2457170742       -5.3976206650       -3.5283248180
  O        -6.1499602449       -4.5263248845       -2.5377803688
  H        -6.0680366999       -5.5408406782       -2.5222471081
  H        -5.5369188848       -4.3305648364       -3.2728946740
  N        -4.3771965043        0.5990077786        9.5479807180
  H        -4.6002292318        1.4745825410        9.0961286977
  H        -3.7841981050       -0.0205971874        8.9065635659
  H        -5.3589465752        0.1597300028        9.7169074077
  H        -3.8079093102        0.8548494942       10.3869045829
