     194
 CELL 12.4294 12.4294 12.4294 90.0 90.0 90.0 i =    92020, time =    46010.000, E =     -1097.1083584739
  O        19.3570200142       -0.6741796112       15.0756770896
  H        18.6596230134       -1.3351745443       14.9053650301
  H        20.2295251698       -1.0825040411       15.2376252732
  O        24.2468640741      -10.7442629335        9.6631934913
  H        24.2894373799      -10.1212096008       10.3902739657
  H        24.7020423784      -11.5379092115       10.0948954816
  O        22.2038023506      -12.8245571343       15.9024363785
  H        21.9129587242      -11.8579921682       16.1312759646
  H        23.1846520156      -12.9526115446       15.6379416558
  O        17.4740568011       -2.7622480490       14.1002696641
  H        17.2511192698       -3.2930840324       14.9418400258
  H        16.5865023222       -2.3099276068       13.9045265732
  O        11.3776799292       -9.4151628201       16.2869594915
  H        12.2073798198       -9.5373470400       16.7855806614
  H        11.3966152819      -10.1987040641       15.6647091382
  O        29.3031566053       -7.4868854998       24.5556824579
  H        29.3734087326       -6.5045734184       24.4585539099
  H        28.5918090197       -7.8531110089       23.9676052787
  O        21.0610025735        2.0336575080        4.1021318037
  H        20.4176859417        2.4408162927        3.4790047746
  H        21.9249222414        2.6118591797        4.0344283056
  O        23.7949653055        1.3439644320       13.8914485932
  H        24.4840414547        0.6902988685       14.2137022737
  H        22.9484680013        0.8750161775       13.7099830439
  O        17.7468048881       -7.2913271501        4.0554376063
  H        16.9495896869       -7.4720851190        3.4782724890
  H        17.5510429856       -7.4036607851        5.0346481283
  O        21.9511223156       -4.5100726447       11.5705686955
  H        22.6865854145       -5.1533886806       11.4972306684
  H        22.4487504933       -3.6761521834       11.6267630855
  O        22.8212194401       -8.1253172934        6.6338841439
  H        23.5967353252       -7.8178404441        6.1259740473
  H        22.8105416239       -9.1684933354        6.7643615258
  O        17.2963895847       -0.5629493850        9.5817407623
  H        17.3454045329        0.0926944359       10.2381352657
  H        17.8611436514       -1.3369726212       10.0138959539
  O        13.3701418597        0.0458770998       15.0691776487
  H        13.5240975392       -0.4264890463       15.8789627668
  H        13.9979889727        0.8067558863       15.2654811018
  O        24.4576847539       -9.0420445206       12.0528155593
  H        25.4425689776       -9.0156472785       11.8805292493
  H        24.4217621353       -9.6154479129       12.9091896467
  O        19.9066421922       -3.9584135405       13.5494170217
  H        20.5319254687       -4.1162707374       12.8370990117
  H        19.3683354240       -3.1769107412       13.3433670189
  O        27.2571844437       -1.9604100736       13.5642609045
  H        27.1334991716       -2.2096313093       12.6242460623
  H        26.7054174806       -1.1676050895       13.8064967446
  O        26.0030922050       -3.8644802871       15.1122055315
  H        26.6968731146       -3.2850246805       14.6328673940
  H        26.3830601387       -3.8761871822       16.0148898651
  O        25.7051182811        2.3021360221       17.9289753591
  H        25.0152941894        2.1441636975       18.5520415133
  H        26.4885093115        2.6969912185       18.3629640009
  O        23.0182804720        6.1657221507        8.5254914477
  H        22.6104034862        5.5580274497        7.8999086429
  H        23.0162861108        5.7930661319        9.4381351107
  O        15.5079050343      -10.3914364713       15.1804633947
  H        15.6964058796      -10.6689827725       16.0975846744
  H        15.7417965673       -9.4429855780       15.0957517812
  O        26.7268466729       -0.8948365369        5.2465160320
  H        25.8807856084       -1.0838848507        5.7768544833
  H        27.3553976939       -0.3836707542        5.8551436779
  O        21.7646796656        3.6004545303       12.4621354531
  H        22.5669742451        3.5976067764       11.9323099523
  H        21.6124725261        2.6392377802       12.6544444186
  O        27.2567613294       -1.7433244496       22.3462677590
  H        28.1044629031       -1.4434298631       21.8882199493
  H        26.6948609230       -2.2083784668       21.6240870546
  O        19.4671271549       -3.1001567694        4.8370981287
  H        18.8835051464       -2.2893363308        5.0636700750
  H        18.8817615057       -3.8249908528        4.6771374520
  O        21.4460790724       -3.7261927483        6.6862146571
  H        21.0968838277       -4.0561572134        7.5758822503
  H        20.6116586644       -3.4823055404        6.1917263089
  O        25.7011271965       -6.6886731808       14.7977393670
  H        25.7712491990       -5.7140073922       14.7761598027
  H        24.8887221169       -6.8959334314       14.2503807653
  O        30.3956847401      -11.5357573991       12.0688820860
  H        30.9462208335      -10.8099761969       11.6353241582
  H        30.9232679107      -11.8392621003       12.8326080108
  O        27.0067760868       -4.1501258855       20.7716957280
  H        27.9984041458       -4.4907389729       20.9260125530
  H        26.5761155405       -4.9797344376       20.6816571511
  O        17.0034629931       -5.9326162970        9.3509744904
  H        17.4994838396       -5.4399322278       10.0642369115
  H        17.7484139348       -5.8531207676        8.7435827110
  O        19.3137767528       -9.1951540773       14.8417090283
  H        18.5854649659       -9.5936327193       14.3309189613
  H        18.9296253430       -8.4366732035       15.2897914321
  O        16.8401122676       -4.7849669446       12.1548782075
  H        15.9109535581       -4.4713759329       12.0644928789
  H        17.1598393259       -4.3649983999       12.9779538617
  O        24.0116166867       -3.5749035069       21.1465265411
  H        23.5078399752       -4.4048397673       20.8640747279
  H        23.6109414051       -3.3417465928       22.0514520831
  O        24.1276899940       -6.3635900879       11.5533664549
  H        25.0340948269       -5.9774094577       11.4111394373
  H        24.3127806454       -7.2599262484       11.8748464845
  O        20.2334152332       -4.5998060057        9.4702847480
  H        20.0057936146       -5.4607354664        9.0754505543
  H        20.7442182348       -4.7178162372       10.3022415320
  O        33.7409142913       -0.4108471109       10.1449352565
  H        33.8643599713        0.3861026135        9.5823638888
  H        32.9222200290       -0.6925591427        9.7450873098
  O        28.1268686569        2.5702621737        6.4776634048
  H        27.5228020773        2.7566843994        7.3134694166
  H        28.4700910135        1.5757568118        6.5633003496
  O        27.4028636727       -3.6329304491       17.8720329895
  H        27.2976487915       -3.9436137250       18.8438403876
  H        27.2186741956       -2.6300333253       17.7135521351
  O        26.9356576015       -8.6463104123       11.2263829827
  H        26.7825289877       -8.8594289868       10.2904483323
  H        27.2872760037       -9.4534470184       11.6755103646
  O        25.6622279144       -6.6667540552       20.0941744097
  H        24.8397792389       -6.6477425805       20.6058004797
  H        25.2252181989       -6.6632344990       19.1992429689
  O        26.3038532476       -9.1192034981        8.5641136898
  H        25.5350388500       -9.7288032005        8.7072049321
  H        26.0090269519       -8.3184148205        8.1429338701
  O        17.4131366317       -4.6032649756        3.8148389185
  H        17.5312759740       -5.5991026432        3.7285106750
  H        16.7103869875       -4.4298939354        4.4565177193
  O        24.1080083626       -2.6420050375       24.4497651761
  H        23.9185609629       -2.5328206417       25.4122872942
  H        24.4296515302       -1.7365168549       24.2001797212
  O        24.3992673545       -1.6707895795       18.5864684684
  H        24.2903326420       -2.2518149626       19.4067160701
  H        23.6492746543       -1.0939634856       18.6326299843
  O        19.8406429889        1.9213413416        6.7056439383
  H        20.3050262280        2.0354820612        5.8334707319
  H        19.1598667614        2.6154072755        6.7248685807
  O        21.8370662524       -0.7629211405       18.6823800007
  H        21.7143211490       -0.8576119491       17.7036385095
  H        21.6339436985       -1.6411329503       19.1826534330
  O        29.0638796414        0.0356068137        6.8008461940
  H        29.9432389086       -0.2410292912        6.4346356922
  H        29.1420702476       -0.1206205768        7.7717553851
  O        25.5547974450       -0.2668891159       11.1709949893
  H        26.0074172464        0.2278324739       11.8829822632
  H        26.2398893751       -0.7275990170       10.5954362484
  O        23.8027370981       -2.0874161328       14.7263888301
  H        22.9161816047       -2.4894100207       14.8997859828
  H        24.5970937886       -2.6510866854       15.1087644377
  O        18.7609988690       -0.3898318198       17.6595352270
  H        18.9805896137       -0.2778238250       16.6654906473
  H        19.5174025359        0.0057757113       18.1101366166
  O        18.4759437937       -2.6932105163       10.5486641679
  H        18.9961892836       -3.2566259877        9.9093864936
  H        17.6621335866       -3.2028603027       10.7972514794
  O        32.2633329946       -7.2671612338        8.4306795426
  H        32.5415567088       -7.1955865041        7.4668408142
  H        32.9786889386       -7.8361917530        8.8132745296
  O        21.2293383791       -9.9485796048        8.9879958096
  H        20.6905750181      -10.3466439888        8.2610032633
  H        20.5245005332       -9.7378958810        9.7016264840
  O        14.0827771286       -4.1750077495       11.3599897957
  H        14.2718203040       -4.0607645183       10.4121557594
  H        13.3373263221       -3.5769881842       11.5973172177
  O        21.1953408570        0.7207473417       12.8074207331
  H        21.2147864549        0.2669174238       11.8839165499
  H        20.5705716564        0.2426582404       13.3420396146
  O        23.4827019192        1.6656918392        7.0450495938
  H        22.8149102742        1.0150401243        6.7510298281
  H        23.5384925805        1.6585206434        8.0428331812
  O        23.0183938637       -7.3687710077       14.5742400843
  H        22.4629407647       -7.8696361896       13.9266830198
  H        23.2687128060       -7.9914287122       15.2620903657
  O        20.6185773538       -7.2860503113       17.8972384929
  H        21.4457710575       -7.6254373039       18.2817926121
  H        20.0329125502       -8.0543899966       17.6559995657
  O        12.4824750635       -6.8160613212       17.6228749087
  H        11.9010297245       -6.0633133738       17.5051634392
  H        12.8346220402       -7.0932288713       16.7416102770
  O        27.4217774309        1.3972914275       12.5454418088
  H        27.4999909776        1.6728939389       13.4957570777
  H        28.3043379801        1.0453791489       12.4468734380
  O        23.3965650013       -4.1473685117       17.2658473727
  H        22.8165616743       -3.9933504467       18.0326922728
  H        23.8550752318       -3.2507082215       17.1982794170
  O        30.3548704260       -8.3196532751        6.3867483820
  H        29.5228995034       -8.9333761238        6.5247229912
  H        30.6281138180       -8.0588072031        7.3208304740
  O        15.7074110161       -7.8076198494        2.1768881157
  H        16.1018463218       -7.6404914043        1.2709725990
  H        14.7007427082       -7.6587719194        2.1266641914
  O        19.2102192255       -9.0338230108       -0.9127597385
  H        20.0177419822       -8.8564357981       -0.4156191034
  H        18.4773993951       -8.4037333969       -0.6914255193
  N        21.4479722141       -5.4374083958       15.6980956713
  H        20.7608267564       -4.8011264764       15.2094451428
  H        21.9569262829       -6.2057396762       15.1366502676
  H        20.8750528072       -5.8843180721       16.4605934264
  H        22.2231668961       -4.8732496827       16.1848892859
