     194
 CELL 12.4294 12.4294 12.4294 90.0 90.0 90.0 i =    60820, time =    30410.000, E =     -1097.1661253672
  O         6.6983660116        0.8668582965       11.5824084668
  H         6.6418671658        0.0984612746       10.9238916289
  H         7.4961104925        1.3775607627       11.4097042559
  O        12.0391370074       -8.8449848772        9.3338599187
  H        11.1553484773       -8.3624526302        9.4295105156
  H        11.7776855336       -9.7747468915        9.2103010844
  O         9.0373096159      -10.0717224050       11.0981302853
  H         9.5709353291       -9.5253945931       11.7237063625
  H         9.7007447000      -10.6985841566       10.6562421009
  O         4.0527173489       -2.2503109640       12.5083105636
  H         3.7394311168       -3.1283654533       12.8469607936
  H         3.3173059874       -1.5605201177       12.6525554450
  O        -1.8104897237       -8.9165555421       13.0047826979
  H        -1.9009864119       -9.5173235246       13.7994497553
  H        -0.8399559659       -8.7577260887       12.9088902695
  O        11.7369676294       -5.1833340526       21.6918308157
  H        12.0027881848       -5.6811473539       20.8881354113
  H        12.3359679432       -4.4144299682       21.6829208320
  O         8.9155795079        0.0709731139        1.9334104816
  H         8.6742033339        1.0143552214        2.0520319344
  H         9.4288912915       -0.1243722453        1.1073445605
  O        13.1804914852        4.0932756480       11.7715224398
  H        12.7292592180        3.8810992663       10.9177936258
  H        13.5292832272        4.9777138376       11.6422127352
  O         5.6710855589       -6.2707010046        2.1750667732
  H         6.0704709735       -7.0188479240        1.6813206933
  H         5.0775060553       -6.7264621837        2.8135360413
  O         9.8526829831       -1.2902181883        8.5175979345
  H         9.2046375490       -1.5131333133        9.2303221986
  H        10.3391633781       -2.1627203422        8.3935311871
  O         9.7598313150       -7.4077682771        3.7306239799
  H        10.5625189623       -6.9698990801        3.5116233953
  H        10.0189475311       -8.2035207873        4.2973259065
  O         5.2944688792        2.1197636592        8.4755998585
  H         4.9285516869        2.0183788240        7.5031550822
  H         5.3082262505        1.2087779180        8.8921047576
  O         2.0583173391       -0.4010913934       12.9267442804
  H         1.4298749335       -0.5454491996       13.6576199870
  H         2.2964734860        0.5650484080       13.0728625401
  O         9.8506984124       -7.1601494056        9.6113991570
  H        10.1370121394       -6.2911951842        9.2715058242
  H         9.5347262408       -6.9359269547       10.5310281810
  O         7.5821025132       -2.0041939556       10.1127546396
  H         7.2182669246       -2.6868497956        9.5856027505
  H         7.9558039545       -2.4276894338       10.9212869513
  O        12.2578297781       -0.7940044581       11.3317508269
  H        12.4893871831       -1.4887733913       10.6190249636
  H        13.1578664950       -0.5700153285       11.7351100997
  O        11.8072477524       -4.7931286659       12.6199248232
  H        10.9938874365       -5.2711979564       12.3300773982
  H        11.6324426686       -3.7914825581       12.6227334076
  O        11.7080070959        1.4348791181       15.0961852123
  H        12.4148767456        2.1197861863       15.2331539580
  H        11.0615980998        1.5765191779       15.8070794934
  O         8.8892462493        4.8397987036        6.8078487314
  H         8.3490466095        4.9753006400        5.9592954516
  H         8.2172938583        4.5669482613        7.5417730597
  O         4.5608251011       -9.7835958026       12.0698791440
  H         5.1527640435      -10.5793333777       11.9832240964
  H         3.7270627205      -10.1182555147       12.5316054989
  O        12.7128270619       -1.2086533665        2.4879160800
  H        12.8484898460       -1.7292291299        3.2840672295
  H        12.3791164735       -0.3707641772        2.9513872007
  O         6.7396455104        5.5270093997       10.4474414240
  H         7.4411092636        5.5765771362        9.7721004258
  H         5.9607705514        5.1450103667        9.9424205668
  O        15.5474491627       -0.3905779193       19.2867975763
  H        16.3564358610       -0.5825251953       19.8818419166
  H        15.4775639559       -1.1453399885       18.7260411495
  O         3.4586157588       -2.6138539956        5.0150107584
  H         4.2803705339       -2.2285519935        4.6982445370
  H         3.7918728169       -3.3356128694        5.5774280836
  O         5.8106492716       -1.3539899045        3.9401567748
  H         6.5254406347       -1.8402233832        4.4854433123
  H         5.9057667096       -0.3649529451        4.0459043234
  O        14.0521987358       -5.7436230902       11.7390683861
  H        14.4565372568       -5.4760795355       10.8677448859
  H        13.2117131505       -5.2955215540       11.8150272840
  O        16.4613050731       -8.2850734012        9.8515296946
  H        16.4876599965       -8.5894807018       10.7805590648
  H        16.9332569861       -9.0060666101        9.3213546454
  O        11.6939730374       -2.9476121387       19.3456375618
  H        11.8738797172       -2.2974488659       18.5904276003
  H        11.9038294374       -3.7404029713       18.9024992605
  O         4.4109503385       -4.6498699156        6.5660131738
  H         4.3290458302       -5.4996016923        6.1469113928
  H         4.8966077874       -4.7021168973        7.3851162076
  O         8.1235527258       -9.5207077928       14.9105283698
  H         8.8908096238       -8.9552425608       15.1039319852
  H         7.6434982838       -9.0661895749       14.1881300630
  O         3.5373564115       -2.9274614915        9.8564490446
  H         3.6916001120       -3.8778148178        9.6704731941
  H         3.7852700119       -2.8208236444       10.8184437285
  O         9.4445910467       -1.1538123009       16.9441702665
  H         9.1479264501       -0.7185488868       16.0800752131
  H         8.7596024638       -0.9259701148       17.6177814207
  O         8.7819946662       -4.6744438821        7.2502059046
  H         8.7070519714       -5.6707247175        7.0976243726
  H         9.6950873638       -4.5000934190        7.0348284643
  O         7.3830029388       -1.3544359448        7.1571961371
  H         7.0041225575       -2.0918378015        6.5422719345
  H         8.2814276038       -1.6041519630        7.5156924505
  O        20.9029753847        1.8121121630        6.8053413873
  H        20.6198306838        2.3093801827        7.6442617357
  H        20.7323421527        0.8720806628        6.9831033678
  O        14.8149346693        3.9185302055        5.2448253433
  H        14.6172603356        4.3954659774        6.0974008455
  H        15.2269529046        3.0536544274        5.5205454066
  O        14.7345633508       -4.4855974609       15.6251916164
  H        15.0755659089       -4.4952685600       14.6856274243
  H        15.1260408777       -3.7030935892       16.1488658189
  O        15.5096063561       -5.6507828126        9.1734587514
  H        14.7519107468       -6.0879924821        8.5061205109
  H        16.0632954290       -6.4855685522        9.3550343356
  O        11.2844996861       -6.3916804587       18.9380006959
  H        10.5092539020       -7.0557526004       19.1174249192
  H        11.1004567417       -6.0463472998       17.9775693982
  O        13.6350189522       -7.2725966138        7.7388087313
  H        13.1810496979       -7.9191825066        8.2880726972
  H        12.9573830991       -6.9599264359        7.0725528924
  O         3.3415070195       -4.7056772994        0.8865811632
  H         4.0955439025       -5.2928620852        1.2248622627
  H         2.7912729023       -5.3129419814        0.2554724515
  O        12.1681202797       -0.8273813605       17.7485030242
  H        12.5819161125       -0.2327635922       18.4402451590
  H        11.2260802259       -0.5773440334       17.6300754779
  O        10.0555602348       -3.8743312918       16.8768316268
  H        10.7722287694       -4.2280536499       16.3055708550
  H        10.0673784242       -2.8464577489       16.8490163717
  O         7.4445099987        6.1049615027        4.9478319714
  H         6.4733631201        6.1067491548        4.5894363164
  H         8.0212127226        5.8875848834        4.2188980080
  O        10.8973591141       -2.0936078689       13.0554097719
  H        11.2721070953       -1.7816862039       13.9005850070
  H        11.3701639301       -1.5848426713       12.3183716815
  O        16.7328924601        1.8949669955        6.0330608516
  H        17.3765789008        1.8868703451        5.3154355048
  H        16.2555238755        1.0551573644        6.0525082233
  O        13.2431196441        0.9666187111        6.9799784359
  H        12.8574606470        1.1648243300        7.8261907229
  H        14.1120253130        0.4918324947        7.1892612369
  O        11.0831663031        0.9087209483        9.6023034959
  H        10.5973396383        0.2348156443        9.0396934723
  H        11.5406710842        0.4224418804       10.3267523290
  O         6.7369883090        1.4432563140       17.0836389490
  H         7.1588393396        1.9223465114       16.3861623455
  H         7.2977041980        1.6725431550       17.8897784069
  O         5.0354282554       -0.8652689094        8.5395391007
  H         5.8733181962       -1.2391604801        8.2011792500
  H         4.6646562699       -1.4609436090        9.2241478288
  O        19.1796977993       -3.3407280047        5.4256311229
  H        19.9453916286       -3.9496232622        5.6576818272
  H        18.3996327133       -3.8629717660        5.6875682419
  O         6.4387269323       -4.2267489516        8.6748997486
  H         6.4810429424       -5.0127802183        9.2892052680
  H         7.3349142809       -4.2304898925        8.1723844519
  O         0.6569489319       -2.5292169628        9.2905388588
  H         0.5688116594       -2.6418088411        8.3412495196
  H         1.6640768544       -2.6269546781        9.5593459475
  O         7.5248761345        3.3864947200        8.7342967741
  H         6.7490144264        2.8344914782        8.7999643643
  H         8.0289631634        3.3231408857        9.5719462715
  O        10.6210353787        2.7158121271        5.3054465550
  H         9.8915582438        2.4942837336        5.9064763811
  H        11.4428128496        2.5518717944        5.7808294886
  O         9.4608974631       -6.4193845250       12.6066881303
  H         8.9488216789       -5.8246390992       13.3292439985
  H         9.6094193710       -7.3627306742       13.0559322475
  O         8.1913483670       -4.9732825394       14.8314855037
  H         8.5809957953       -4.6015623095       15.7068417831
  H         7.2711651418       -5.2407865775       15.0490887324
  O        -0.2954978596       -5.6216368645       15.5196999103
  H        -0.4438598299       -5.3763466685       14.6194136699
  H         0.5336989458       -5.1580164112       15.7319528577
  O        14.5326788295        2.2715837089       13.5007228062
  H        14.0560684874        2.8282651609       12.8396709034
  H        14.3109648399        2.7235905628       14.3371073471
  O         8.3917915513       -3.0772880910       12.7136192313
  H         8.1598064980       -3.6284909541       13.4995880359
  H         9.4099668298       -2.6657080733       12.9632208759
  O        16.4203610837       -6.4166784644        4.4118605771
  H        15.9078264668       -7.2133189718        4.5843481294
  H        15.8141638226       -5.8531042394        3.8413786302
  O         0.8179387793       -8.6599697693        2.8592666975
  H         0.4286445194       -7.8096697538        2.6048075970
  H         1.1401770770       -8.5806675540        3.7557423970
  O         6.7515927693       -8.3507334113        0.4260602058
  H         6.0478562288       -8.8156763168        0.0625818614
  H         7.1605296553       -7.8349682905       -0.2810291260
  N         6.4619037819       -1.2683909482       13.6198195929
  H         6.5300062853       -0.3242563983       13.1170325419
  H         7.3502714651       -1.7898581860       13.3558911550
  H         5.6650117487       -1.6855677311       13.1405515394
  H         6.1958926838       -1.2180874249       14.6104079460
