     194
 CELL 12.4294 12.4294 12.4294 90.0 90.0 90.0 i =    58020, time =    29010.000, E =     -1097.1337437198
  O         5.2157745899        1.3229261490       11.9106687867
  H         4.8330383278        0.7227186365       11.2495668932
  H         6.1503600160        1.4157144948       11.5620959199
  O         9.9714442338       -8.4775262537        9.1706449536
  H         9.2661291905       -7.7809988425        9.2635531878
  H         9.4039297655       -9.3028096827        8.9377172582
  O         7.8174089650      -10.7818406000       10.6415732844
  H         8.4168736897      -10.4550919421       11.3343205231
  H         8.3449949914      -11.3108729915        9.9828110889
  O         2.7054453250       -1.6862016549       12.2883556893
  H         2.4663835843       -2.5153788582       12.7426017278
  H         1.9270191097       -1.0249336780       12.4665752710
  O        -3.3576845968       -8.7987317392       12.3757678957
  H        -3.4574382015       -9.0934812178       13.3083598659
  H        -2.4500980532       -8.3380791377       12.2058014094
  O         9.4736879447       -4.2929462579       20.8425203659
  H         9.5534854373       -4.8821788495       19.9272939628
  H        10.3539503959       -4.0735457709       21.1610090916
  O         7.8854577015        0.1806520062        2.0840238359
  H         7.5295150886        1.0493590237        2.3811946796
  H         8.6881696857        0.4845987729        1.4542281168
  O        11.4902694818        4.7021306024       11.6986002229
  H        11.3437099909        4.2390529725       10.8372600772
  H        12.0221324677        5.5106500756       11.4632175205
  O         4.7156677668       -5.0911018975        2.4186408130
  H         4.8662991713       -6.0822449459        2.3851497579
  H         4.7211181544       -4.8175450816        3.4252626454
  O         7.9670237564       -1.7159911786        7.6589601041
  H         7.3117696587       -2.0423813406        8.3005063885
  H         8.6261098293       -2.4957211503        7.7486221177
  O         8.4771469641       -7.0553632525        3.2699831607
  H         9.1065343551       -6.7295682247        2.6231642479
  H         7.9497073038       -6.2706999389        3.5878864317
  O         4.1690188600        2.3665512515        8.4619232758
  H         3.6078837698        2.3032046287        7.6781735683
  H         4.1849966634        1.4467030932        8.8378645715
  O         0.5895362620        0.1729107567       12.3564758847
  H         0.0713922701       -0.0172172518       13.1821983508
  H         0.8075622720        1.1641313703       12.4899864930
  O         7.9315245327       -6.1883440155        9.6185984806
  H         8.4057062021       -5.4878927330        9.0803495968
  H         7.9154693286       -6.0203670337       10.5998793110
  O         6.2083376710       -2.4553370827        9.7484347182
  H         5.5846899734       -3.1816160749        9.6298101803
  H         6.7391948337       -2.6888891234       10.5423900546
  O        11.0355783739       -0.7001891140       10.7966917017
  H        11.3770520979       -1.5248439720       10.2624888829
  H        11.8470441908       -0.3746746504       11.2345616526
  O        10.3611965110       -4.7087835724       12.1285302449
  H         9.5596821298       -4.9595535108       11.6992623212
  H        10.2916922571       -3.7308716153       12.3363314545
  O        10.2413481089        1.8775877671       15.1383210827
  H        11.1240883686        2.3654770468       15.2234190807
  H         9.9565979075        1.8627298954       16.0978165415
  O         7.9872099624        4.5657737749        6.0763683051
  H         8.7496181739        4.2623581116        5.5822984590
  H         8.0338530055        3.9254682426        6.7776541488
  O         3.4470125426       -8.8873696887       12.5151771186
  H         4.0370306089       -9.6926876633       12.5709500605
  H         2.5398322639       -9.2109099379       12.7828884186
  O        11.5754781772       -0.6243048262        2.2480588562
  H        12.0463693516       -1.0498820438        2.9738401984
  H        10.9741637252        0.1073076654        2.5819944487
  O         4.8317327496        6.2615137234       11.3876530600
  H         5.7866695440        6.0083020155       11.3310223872
  H         4.4349321131        5.5136914500       10.7944496816
  O        14.0157496534       -0.4859397460       19.6678377574
  H        14.4097664908       -1.0018381989       20.3892442120
  H        14.1252634288       -1.0298515990       18.8629488698
  O         2.2033141948       -2.1077225535        5.2256382857
  H         3.0866494597       -2.0951737687        4.7653756979
  H         2.2787022981       -2.8910798857        5.7955017266
  O         4.7970768242       -1.1556083958        3.9146785097
  H         5.3257884768       -1.6552191070        4.5734636230
  H         4.8095943930       -0.1789592982        4.1194887030
  O        12.7922657942       -5.2674097523       11.4514005500
  H        13.1602521411       -5.1553229373       10.5453877925
  H        11.8850120442       -4.7757523530       11.4559027081
  O        15.3572231239       -8.0598764011       10.0975855687
  H        15.5383938784       -8.5090158471       11.0518494440
  H        15.7525672737       -8.7139423493        9.4068793514
  O        12.1099846405       -3.2317889927       18.7173732690
  H        11.6340849954       -3.8335037603       18.0587645793
  H        11.9870911989       -2.3974973748       18.1762517509
  O         2.8746319176       -4.7008771045        6.6419704966
  H         2.4390168983       -5.4367594803        6.1141715939
  H         2.5370069274       -4.7754679438        7.5583198749
  O         6.9240358530       -9.7455066645       15.2998455914
  H         7.5922929698       -9.0383832969       15.5632115250
  H         6.4735126844       -9.3843909119       14.5288987718
  O         2.4113536759       -2.1646278530        9.4172218454
  H         3.0262241143       -2.9242612411        9.2415085994
  H         2.2739108339       -2.0874556920       10.3654131337
  O         8.8943292688       -1.6545059451       16.1199415468
  H         8.6347769093       -0.8839459014       15.5487402584
  H         8.1222611215       -2.0127886576       16.6138853247
  O         5.4163501547       -6.2419430457        7.9765590671
  H         5.4947739559       -6.6877526333        7.1060916123
  H         6.2639198599       -6.3708626747        8.5063581017
  O         6.6065138445       -2.5138596720        5.2637341235
  H         6.2298716381       -3.4423376485        5.5160409890
  H         7.1428181300       -2.1925737129        6.0309426939
  O        19.7796450803        1.2564410521        6.6744383977
  H        19.5848064037        2.0106721130        7.3662384831
  H        19.9203939230        0.4481589697        7.1829591213
  O        13.1036329285        3.7595070940        5.3207705579
  H        12.7817481672        4.1412944486        6.2387040547
  H        13.8211872708        3.0307727903        5.4906283828
  O        13.2759632748       -4.6501186010       15.6837500876
  H        13.7317342717       -4.2966717891       14.8781636438
  H        13.2104653591       -3.9036290735       16.3395339121
  O        13.7658251468       -5.8563551190        8.8799524710
  H        13.0563938860       -6.4067369327        8.4679248954
  H        14.2505986434       -6.6092717857        9.3717189828
  O         9.6543317447       -5.5879311357       18.5920939950
  H         8.9123812417       -6.2729775539       18.7502194580
  H         9.3601347389       -4.9756945769       17.7977501327
  O        11.9210642181       -7.2189960670        7.4412870305
  H        11.1466272643       -7.6272008727        7.9580843992
  H        11.5370346311       -6.4585784439        6.9455597350
  O         2.3099578845       -4.2036448092        0.9417732411
  H         3.1236341108       -4.7146431954        1.1154645947
  H         1.9202825705       -4.6070660040        0.1067299439
  O        11.4933373533       -0.9590596805       17.3273423568
  H        11.6769096729       -0.2024777213       17.9822098223
  H        10.5045860505       -1.0270683146       17.2016351816
  O         9.4972541410       -4.2448057638       16.4565155984
  H         9.9363542369       -4.8120712836       15.7746124469
  H         9.7122109093       -3.3416783623       16.0995066069
  O         5.1742927092        5.0749975561        4.5992511860
  H         4.1445311037        5.1964255269        4.4364362002
  H         5.4581225283        4.2326197737        4.2136534172
  O         9.8520740169       -1.9117354387       12.8409246714
  H        10.3021082278       -1.6820233529       13.6506758638
  H        10.2152211127       -1.3015325228       12.1610632348
  O        15.0699845649        2.0185666249        5.9378848200
  H        15.9564037308        1.9780276950        5.4292612368
  H        14.8422037003        1.1180617248        6.3590880798
  O        11.6631679390        1.0109787889        7.0822360831
  H        10.9554682613        0.5714819805        7.5357134235
  H        12.4921187236        0.5787440090        7.3454529880
  O         9.5051022407        0.3456505448        8.7608721028
  H         8.8593653273       -0.3565889271        8.3984680292
  H        10.0662238719       -0.0384949284        9.4587454230
  O         5.2938741110        1.6475518876       17.3877377975
  H         5.8471349370        1.9329566896       16.6879432019
  H         5.9167546200        1.2549524905       18.1149376483
  O         4.7085733771       -0.0363411387        9.4134256578
  H         5.4748544790       -0.6753819189        9.4445445138
  H         3.9462167772       -0.6877151949        9.2896027488
  O        17.5174398086       -4.7066734888        5.1392230038
  H        17.7689973693       -5.6585939457        4.9817917423
  H        16.8083478825       -4.6713209047        5.8184403455
  O         4.1152864505       -4.1076397391        9.2951175675
  H         3.9778399674       -4.7812297945       10.0117053654
  H         4.4980971634       -4.7448285718        8.6386336471
  O        -0.3406799534       -2.8268157449        8.9514481111
  H        -0.4764350324       -2.9142498947        8.0056344916
  H         0.6154436626       -3.0128202135        9.2100925442
  O         6.7162558794        3.2059455124        8.4559423623
  H         5.7707492463        2.9387382497        8.3549856063
  H         6.8944294742        2.8523730218        9.3758598068
  O         9.7099529258        2.3169416241        5.6269369854
  H         8.8961661417        1.7640343733        5.8605150388
  H        10.4766510519        1.9028195260        6.1213000697
  O         7.8054153740       -6.3662984920       12.3225104494
  H         7.9098174345       -5.7262452252       13.1086829976
  H         8.4201033972       -7.1684639903       12.5357122220
  O         7.2747468034       -4.6860277548       14.5481292057
  H         7.5661038790       -4.0067915887       15.2076067661
  H         6.3388208535       -4.8372239213       14.6210881060
  O        -1.4209982094       -5.9122205293       14.5983903039
  H        -1.3900868108       -5.7193400911       13.6243471119
  H        -0.6417450393       -5.4354108642       15.0219557413
  O        13.3247782536        2.8724266694       13.0515383623
  H        12.7357469669        3.3516543566       12.4528648744
  H        12.9886614946        3.2440288511       13.9079894672
  O         7.2289989901       -2.8842252931       12.2535316718
  H         7.1848737075       -3.7138881913       12.8419288339
  H         8.0469416973       -2.4780159795       12.5500798116
  O        15.0749324208       -6.5751052284        4.4255763034
  H        14.1724157082       -7.1229180458        4.5491662838
  H        14.7956670027       -5.7540913537        3.9446927341
  O        -0.2369480003       -8.8641912005        2.9680494199
  H        -0.8950488647       -8.1770389759        2.7061332318
  H        -0.0108578455       -8.7110139893        3.9632845299
  O         5.6832055986       -7.7256025046        1.2969245583
  H         4.9069979727       -7.8476285431        0.6832039794
  H         6.2534055705       -7.0836765965        0.8048917511
  N         5.1493510548       -1.1859231815       13.5210350415
  H         5.2594347678       -0.2839139086       13.0157988153
  H         5.9895206375       -1.8576175880       13.3418205842
  H         4.3689982336       -1.5616040769       13.0754238232
  H         5.0214706127       -1.0911783360       14.5589520705
