     194
 CELL 12.4294 12.4294 12.4294 90.0 90.0 90.0 i =    97620, time =    48810.000, E =     -1097.0935398345
  O        21.7544107302       -1.5039280797       14.2321812320
  H        21.8959121365       -2.3237574717       14.8435013631
  H        21.1200431067       -0.8768007464       14.5928067739
  O        26.6483930521      -11.1207957002       10.2946737518
  H        26.9005192553      -11.1844088332       11.2330516314
  H        26.7717101148      -12.0800617959       10.0524898669
  O        22.9965681516      -13.0462361422       17.0543278213
  H        23.5631447441      -12.2563725164       16.8809012264
  H        23.2587350622      -13.8322489271       16.4795875875
  O        19.0720717137       -3.6089688463       14.6418336333
  H        18.7858633927       -3.2875488607       15.5698987838
  H        18.5973374029       -2.8661113900       14.2064717572
  O        12.1492599652      -10.7887175569       16.7967278183
  H        12.8319085688      -10.7473581418       17.5536167946
  H        12.6950849164      -11.1651537871       16.1055458355
  O        31.2180817501       -7.8888986705       24.3919099658
  H        30.7827629763       -7.1282844816       24.8756158579
  H        30.6023824237       -8.3636305560       23.6862112618
  O        21.5634562466        1.8436789956        5.2796807021
  H        21.2020899346        2.7844513051        5.4700711233
  H        22.5233147354        1.8520103304        4.9815945633
  O        26.0820336406        0.4225176725       14.6414296800
  H        26.4302795213       -0.3507973933       15.1775665162
  H        25.2195817023        0.1587589343       14.2280400304
  O        18.8540637839       -5.7603085582        5.1194904848
  H        18.0274039749       -5.3492118772        4.9065257976
  H        18.6720080443       -6.0865728990        6.0394668939
  O        23.2545111936       -5.2471623239       12.4153721788
  H        23.7817221799       -6.0444460017       12.5798730082
  H        23.8794594138       -4.4864669292       12.6897214043
  O        23.4803949823       -8.2103834174        7.6874194130
  H        24.1901593412       -8.0286133757        7.0244574265
  H        23.6831946412       -9.1603175118        8.0096324794
  O        18.5323583502       -1.8051440902        9.9608579908
  H        18.0319262744       -1.0824650964       10.4875959979
  H        19.3603374160       -1.9071348426       10.4202931435
  O        16.1545583661       -0.6388544613       15.8699727750
  H        16.1534654705       -1.1989726656       16.7255785703
  H        16.5600649353        0.2595526608       16.1172454079
  O        27.5770309497      -11.2264879643       12.7098182833
  H        28.1509887724      -10.5819767342       13.1735258732
  H        27.0699692150      -11.7038464097       13.3890222684
  O        21.6991822647       -4.9305241423       14.4207797841
  H        22.2298784599       -5.1306635687       13.6108305610
  H        20.7952779884       -4.5861141228       14.0965990419
  O        29.9907562955       -1.3653181170       13.7516059305
  H        29.3109535426       -1.4890527052       13.0717409356
  H        29.5997056791       -0.9959153154       14.5362771581
  O        28.6082919398       -4.9655604897       16.8101731367
  H        28.2871415323       -4.4463143790       16.0045667062
  H        28.2425232418       -4.4507593995       17.5470792099
  O        26.8703131656        1.5159428939       18.4043486873
  H        27.0313987093        2.0326871967       19.2899562601
  H        27.2898264951        0.6288941065       18.5592766743
  O        24.5373398201        6.1244066340        9.4673573632
  H        23.8961977484        5.5102853830        8.9822540816
  H        24.4369422137        5.7566546878       10.3898038613
  O        16.7592383570      -10.7794661424       16.8179652898
  H        15.9108692803      -10.5563820485       17.2747525027
  H        16.8800420259      -10.0513571861       16.2696881053
  O        28.3605725936       -0.7960485551        6.4795978863
  H        27.9116433065       -1.1899291423        7.3729519674
  H        29.3277089393       -0.7056283076        6.8622189643
  O        23.1007391059        2.9039263452       13.2777130297
  H        22.9334567575        2.8775501351       12.3108997538
  H        23.3486257989        1.9696682048       13.5451733055
  O        29.8199710090       -4.1596181948       23.0504320285
  H        30.3074861464       -3.4611825412       22.6601337628
  H        29.2643269856       -4.5141502118       22.2607274699
  O        21.3458275341       -3.4372278346        5.3774571784
  H        20.8340047505       -2.7928250680        4.8777450928
  H        20.6026418386       -4.0683059024        5.5858986313
  O        22.8047521392       -3.6325742611        7.7874760012
  H        22.4676733220       -3.9091945548        8.7178669691
  H        22.0661534097       -3.4897529935        7.1441242175
  O        27.4214204436       -7.7417663933       16.1216328297
  H        28.0061132722       -7.2069219928       16.6719241899
  H        26.7542768952       -7.1095875082       15.7501387590
  O        31.7748798749      -12.1535971665       12.7914876060
  H        32.0492717873      -11.3509433773       13.2597437332
  H        31.1403964315      -12.6342484768       13.3385072423
  O        29.1498178853       -5.0960942978       20.5756104825
  H        30.0077030321       -5.5985978327       20.5287993624
  H        28.3680590880       -5.7019262275       20.8135294960
  O        20.6593191947       -7.0109480832       10.1997357010
  H        19.8753563874       -7.1397589379       10.9114148630
  H        21.2344712717       -7.7940655206       10.1704173222
  O        18.7621577248       -8.5538553337       17.0116271234
  H        19.0483902399       -8.8054222361       16.1010889431
  H        18.9849224370       -7.5632484597       17.1243267603
  O        17.6433550133       -5.5105164553       13.2677329497
  H        17.3786340891       -4.9067527227       12.5782462149
  H        18.1903978654       -4.9708314926       13.9075396825
  O        25.2779297675       -3.4175208378       22.1755821604
  H        24.7998789039       -4.2394000335       21.8165326254
  H        24.6266159350       -2.7278408883       22.4566499750
  O        24.9637011755       -7.3095112884       12.5242594306
  H        25.9123244823       -7.1733021998       12.9232897396
  H        24.6255625741       -8.2018351858       12.7783069364
  O        21.9194488102       -4.4408553697       10.2895189696
  H        21.4201867368       -5.3211146102       10.1602687166
  H        22.5346964867       -4.6967811406       11.0208957360
  O        35.7170477727       -1.5270346377       10.4193201234
  H        35.4579639739       -0.9226928947        9.6659465799
  H        34.7954742419       -1.7421431771       10.7491657900
  O        30.5233979464        3.1085819671        7.0984842375
  H        29.5313133934        2.9629515561        7.1458377953
  H        30.6333551814        3.1434735082        6.1189489220
  O        27.5462323692       -3.8677771167       18.9597773090
  H        28.0484288825       -4.3594111545       19.6332294986
  H        27.9049210304       -2.9274034753       19.0257638570
  O        30.1306997271       -9.3602902696       10.1316719744
  H        29.5066332135       -9.3013486515        9.3810231388
  H        30.0873087623      -10.3193607389       10.2816289097
  O        27.0496097785       -6.8408611263       20.8781364747
  H        26.1938888630       -6.5315702860       21.2710083414
  H        26.7978870132       -6.9147998343       19.9605668887
  O        27.8998388314       -9.4517491383        8.2917830889
  H        27.5638187668      -10.0794155866        8.9915857399
  H        27.5093394614       -8.5880851428        8.5387820317
  O        19.2227749358       -2.0531031197        4.4958230372
  H        19.0160751923       -1.8434171192        5.4356297520
  H        19.1531911514       -1.1693815836        4.0823149117
  O        25.5560923387       -3.7793056809       25.7013104887
  H        25.2972951243       -3.3465205190       26.5562457015
  H        26.2104911966       -3.2035077305       25.2319213674
  O        26.4194884326       -1.2019080212       20.9619152147
  H        26.2777828472       -2.1374697026       21.2888160440
  H        25.6750931520       -1.1116008551       20.3540708283
  O        19.9924742005        1.2140245597        7.3236117275
  H        20.6903992124        1.4199208534        6.6478977641
  H        19.3833793518        2.0395544438        7.2882991240
  O        23.9205651259       -1.2242968736       19.8303140350
  H        23.5159572778       -1.1523410000       18.9591286945
  H        23.5141597914       -1.9377490549       20.3735308112
  O        30.8801700884       -0.9820031495        6.9248404630
  H        31.4754888858       -0.1629898469        6.9526985747
  H        31.0505864028       -1.4054966187        7.7768764574
  O        27.8563769891       -2.3198439173       11.6050545092
  H        27.4421472026       -1.9621185097       10.7730912806
  H        28.6513217591       -2.9176935825       11.3393006767
  O        24.1500970051       -3.1403097597       15.5995849181
  H        23.5477637642       -3.7091793267       15.1466170524
  H        24.5732734927       -3.7106005701       16.2737344729
  O        20.1120246650        0.1642383725       15.8128820782
  H        19.7870732207        1.0562340029       15.5667603885
  H        20.9202014560        0.3035591890       16.4304913582
  O        20.7999011564       -2.2717645571       11.4700893532
  H        20.9861848087       -3.1844887809       11.1263771452
  H        20.7601541703       -2.2634989802       12.5052117640
  O        34.7275507984       -9.4320858915       10.5345825628
  H        35.4894494262       -9.7835762818       10.0354827828
  H        34.1024818902      -10.2508321371       10.4806456927
  O        20.8368996226      -11.7687594594       10.0539678402
  H        20.3035715727      -11.6110595467        9.1745720769
  H        20.2391101305      -12.2601205487       10.6802438200
  O        14.6647666989       -6.2162367326       13.5062822320
  H        15.6202149938       -6.3307052621       13.3244218067
  H        14.2679606354       -5.2911061389       13.2823287745
  O        23.7762876426       -0.2004250742       13.3176176498
  H        23.8276269215       -0.5613743236       12.3874364178
  H        23.1491837748       -0.8729194411       13.7591481269
  O        24.2836678476        1.7764631704        8.7535184358
  H        24.1508012410        1.0921293940        8.0793976688
  H        25.1533377809        1.6328893098        9.2530276320
  O        23.9216051159       -8.1680866047       15.6571899977
  H        23.4945950074       -8.4356469984       14.8084725218
  H        24.1907367912       -9.0074813804       16.1024769469
  O        21.1289197606       -7.9487503696       18.5970803324
  H        21.9480088609       -7.8638858757       19.2041501770
  H        20.4172076823       -7.5155696910       19.1812320200
  O        13.4809875842       -7.0982825132       18.5117828064
  H        13.0768621985       -6.2108364961       18.3512694458
  H        13.8362159642       -7.3385352855       17.6979488916
  O        29.8185423383        0.6238028847       11.1685211848
  H        29.0127732189        0.7269389031       11.7254849667
  H        30.6084761993        0.4731611344       11.7535646962
  O        24.6037384390       -4.4552109743       18.2437133239
  H        24.0369753448       -4.1490486938       19.0005848701
  H        25.5250936217       -4.1195124529       18.5297426966
  O        31.3850422728       -6.7692609663        8.1254548306
  H        30.9683722268       -7.6590243898        7.8563462972
  H        32.1690052556       -6.8884405422        8.7944139691
  O        16.5154159009       -8.9637060685        1.5377767936
  H        17.1918225638       -8.4732112139        1.0333522559
  H        15.8951771145       -8.3712266695        2.1825559613
  O        20.1725988301       -8.9456525875        1.7416774729
  H        21.1164299699       -9.0227895026        1.4010160119
  H        19.7683780017       -8.7081856341        0.8523882837
  N        22.1704549186       -6.0008688037       16.7937023212
  H        22.7328562652       -5.3752672596       17.4693072661
  H        22.8867089915       -6.6653718847       16.4852488588
  H        21.8371782527       -5.4811735015       15.9686982247
  H        21.5210895376       -6.5343425019       17.3346034261
