     194
 CELL 12.4294 12.4294 12.4294 90.0 90.0 90.0 i =    93220, time =    46610.000, E =     -1097.1229584282
  O        19.5589079620       -0.8509547364       14.2231184572
  H        18.7874826998       -1.2204812380       14.7258001525
  H        20.0702154010       -0.2196026995       14.7367790415
  O        24.8875510940      -10.7039462523        9.9544347417
  H        24.8397289643      -10.2749703981       10.8828351755
  H        25.3393577908      -11.5497730666       10.3229623778
  O        21.8198211822      -12.4926304173       15.8099661650
  H        22.2242419859      -11.6778067890       16.0012178484
  H        22.5223025687      -13.0533237257       15.4873631371
  O        17.4787744092       -2.4645894793       14.4067093874
  H        17.3581793575       -3.2615789304       15.0007594877
  H        16.6174020804       -2.2357101343       13.9875744780
  O        11.3311385000       -9.7817326149       16.2299643580
  H        12.1385854264       -9.9225796493       16.8059343331
  H        11.5526562967      -10.1787445802       15.3186768480
  O        29.7093204258       -7.0750871281       24.4945755601
  H        29.5538684838       -6.1434488072       24.2611081374
  H        29.0848055355       -7.7397664319       24.1532392015
  O        21.4485189604        3.1901933772        4.9754934947
  H        20.8297431916        3.3632877663        4.1956597550
  H        22.3403024370        3.0406921836        4.6087821435
  O        24.4480216925        1.0197530797       14.1036205212
  H        25.1429397539        0.4187972721       14.5384560353
  H        23.6922841695        0.4808214904       13.6719678410
  O        17.9647274154       -6.7338859967        3.9080594612
  H        17.2542205759       -6.9876273637        3.2746715914
  H        17.6755383251       -7.2697063140        4.7237213502
  O        22.9208146628       -4.3139996887       11.5512322931
  H        23.4754534868       -5.0016693891       11.9982759878
  H        23.4228112408       -3.4481284076       11.7396947625
  O        22.9086375123       -8.2369864581        7.5163986490
  H        23.2027806574       -7.8571368270        6.6550944048
  H        22.8660968353       -9.1677847928        7.3550419285
  O        18.3470183216       -0.7394065792        9.2519859703
  H        18.5355391853       -0.0001373011        9.8956585967
  H        18.9721408308       -1.4676360221        9.5093787184
  O        14.1381826965        0.1907227341       15.7031198484
  H        14.1344242969       -0.1598051655       16.6321836881
  H        14.6323075206        1.0397160648       15.8085950662
  O        25.1162726723       -9.2573485268       12.3652371380
  H        26.0908220563       -9.2187033252       12.4103072981
  H        24.8663190537       -9.9453397489       13.0286145160
  O        21.1422030016       -3.3824519699       13.6087165609
  H        21.5462357948       -3.6865828631       12.7721817454
  H        20.3953315376       -2.8346524133       13.3976445462
  O        27.2374785150       -2.0496220190       13.9156451982
  H        26.8977574742       -2.0275420587       13.0064842825
  H        26.8311908202       -1.2851554524       14.3675400721
  O        25.8520286205       -4.0897244190       15.6818572476
  H        26.5034056999       -3.6952314020       15.0821571187
  H        26.1301430739       -3.8688697207       16.6213163484
  O        25.5852089199        2.4995668533       18.2559666563
  H        25.0075828190        2.2625250871       19.0222366955
  H        26.1500828613        1.7237065978       18.2287245850
  O        24.1892122815        6.0249060335        9.1237202840
  H        23.6778942170        5.2944505750        8.6487890019
  H        24.2079566384        5.7253527218       10.0357965579
  O        15.8102443467      -10.2498897784       15.6829354180
  H        15.5370675711       -9.9165986159       16.5943264616
  H        16.0420985805       -9.4155119018       15.1796622281
  O        26.7862132645       -1.2085343495        5.6372442592
  H        26.0383136288       -1.3205670481        6.2346856710
  H        27.5188643066       -1.0447997461        6.2771893660
  O        22.1852256657        3.4904347213       12.2062534330
  H        22.8169554324        3.2072932899       11.4971648875
  H        21.9594832693        2.5138589955       12.4169622516
  O        28.2260143923       -2.5152878960       22.4158026559
  H        29.1522784445       -2.0192866229       22.4458804176
  H        28.1738289547       -3.1428575080       21.6367341634
  O        19.5963716143       -3.0142116869        5.1450029301
  H        19.1487484590       -2.1625535830        5.4649503947
  H        18.8066309217       -3.4640826492        4.7507249353
  O        21.4547006917       -3.3140816335        7.2007889850
  H        21.1305711488       -3.8142710721        7.9951857075
  H        20.6340014458       -3.3405798517        6.6484133202
  O        25.6980465513       -6.7541193229       15.2027518151
  H        25.8449762348       -5.7432547532       15.4101891770
  H        24.7899422028       -6.6931537462       14.7470223045
  O        31.1000112554      -11.6270121125       11.9097413344
  H        31.4769762534      -10.7331315030       12.0701340298
  H        31.6286099403      -12.1773896334       12.5203760330
  O        28.2697995917       -5.0137135840       20.3043459166
  H        29.1650010898       -5.3665789981       20.2544990325
  H        27.6809935136       -5.8388232659       20.2069420386
  O        17.8059109530       -6.9288805709        8.5847793302
  H        17.2592590834       -7.4413757727        9.1960108880
  H        18.7023851986       -7.3255583248        8.8098817088
  O        19.4343408806       -9.0810753529       15.1202274512
  H        19.5548417131       -8.9004800418       14.1769892571
  H        19.1369971801       -8.2403167582       15.5620439514
  O        17.5909356412       -3.7462539060       11.6352072124
  H        16.6927257255       -3.4471312541       11.2812425007
  H        17.6678573090       -3.4169169500       12.5420476014
  O        24.7927164406       -3.6415105425       21.5757746145
  H        24.5718185391       -4.6280932540       21.5766983266
  H        24.1446996770       -3.2867515823       22.2293724531
  O        24.6326946097       -6.4070625475       12.2140902237
  H        25.5447497283       -6.0561119641       12.2689834789
  H        24.6723265124       -7.3771795510       12.4094881061
  O        21.0962817333       -4.9042225658        9.4002194088
  H        20.7188665362       -5.8579329297        9.4755307282
  H        21.8580269250       -4.7904585376       10.0960550278
  O        34.5178278168       -0.7842335016       10.3482655239
  H        34.1781300771       -0.1177043253        9.6605942769
  H        33.7104736861       -1.3747732932       10.2260787990
  O        28.4846950448        2.0735678449        6.3591191989
  H        28.1578295479        2.0557474070        7.2933726143
  H        28.9516256131        1.2131729624        6.3520704858
  O        27.3318289628       -3.8847703607       17.9365999648
  H        27.6677890142       -4.1338520714       18.7863082263
  H        27.2114216110       -2.9176221350       18.0771238631
  O        27.9458424163       -8.9971963527       11.3287921099
  H        27.7636879332       -9.2239088897       10.3720021227
  H        28.0741092606       -9.8010730835       11.8774199702
  O        26.3453676670       -7.4062217229       20.0047982404
  H        25.5163149409       -7.0444614432       20.4499551552
  H        26.0579396739       -7.5654264514       19.0607028742
  O        27.2148077660       -9.6213602129        8.9891587992
  H        26.4568013385      -10.1418655264        9.2985087154
  H        26.9166164162       -8.8465748968        8.4361545618
  O        17.2328862941       -4.0334960149        4.1339242640
  H        17.4950082637       -5.0021314337        4.1247566951
  H        16.4183562476       -3.8700029488        4.6591716810
  O        24.7562048378       -2.1585286375       24.7069285107
  H        24.4911562598       -1.9553196288       25.6737760242
  H        25.0157075033       -1.2764629776       24.3035456817
  O        24.4289111795       -1.8484561506       19.2404817405
  H        24.2636020270       -2.4413950923       19.9974689147
  H        23.5174296851       -1.5343284097       19.0718170472
  O        19.7233519291        1.8496237168        6.7747319613
  H        20.5416603520        2.1484380305        6.2375304261
  H        19.1012815183        2.6353903913        6.7554658942
  O        22.0721297921       -0.6808815773       18.7384435649
  H        21.8351409697       -0.6623529729       17.7563192330
  H        21.6415088554       -1.5490552624       19.0151789916
  O        29.0797297184       -0.6652568424        6.9961561360
  H        29.8221455724       -0.7705661946        6.3945336621
  H        29.4805016966       -0.4929390152        7.8596829752
  O        26.6841284938       -0.3106596618       11.1672067559
  H        27.3804028877        0.2243076504       11.6539563659
  H        27.1287441169       -1.0160458562       10.6876505044
  O        23.5665987786       -2.1312229962       14.8114252380
  H        22.8155401360       -2.5692029391       14.3182447450
  H        24.1065370134       -2.9377751679       15.1597186247
  O        18.5397199459       -0.0253544306       17.5971515166
  H        18.3452425377        0.4177364898       16.7767580017
  H        19.0282198538        0.6497010446       18.1376317925
  O        20.0098575571       -2.7783994738       10.3549647058
  H        20.3070198162       -3.7265722313       10.0205064833
  H        19.2636910065       -3.0143496906       10.9231265643
  O        32.8755570501       -7.6112714767        8.9771097678
  H        33.2673812210       -7.4726771018        8.0994563597
  H        33.1368117882       -8.4708086812        9.3562568885
  O        20.9460351045      -10.7722215799        9.2946929628
  H        20.4966950510      -10.7859808249        8.3836134054
  H        20.1814714171      -10.9663823990        9.8418429046
  O        14.1617554590       -4.4218157497       11.8692397258
  H        14.2739097411       -4.2651775814       10.9253934596
  H        13.4352039988       -3.8014661366       12.0828527819
  O        22.1230399599        0.4302031836       12.7443365918
  H        22.0852113371       -0.1564765914       11.9186663656
  H        21.5314260308       -0.0719482442       13.3388119530
  O        23.6869469416        1.5293505971        7.5182808943
  H        23.5173994157        0.6153462825        7.2752731477
  H        23.8960666074        1.4943572672        8.5000929961
  O        22.6761087494       -7.5047606647       14.8199440799
  H        22.4037336292       -7.9521144990       14.0292715720
  H        22.9470981071       -8.1647787747       15.4943756557
  O        20.6267425346       -6.5920678793       18.5668468992
  H        21.1769588485       -7.3674335852       18.3341698112
  H        19.7796079802       -7.0432327367       18.5209678884
  O        11.5241586029       -6.7348488568       17.9122874010
  H        11.5715202774       -5.7239986013       17.9567069463
  H        12.1132120835       -6.9742561205       17.1836149634
  O        28.5339262073        0.9524990051       12.8098455793
  H        28.6244258545        0.7016618301       13.7508798870
  H        29.4810911675        0.8527266050       12.4542442494
  O        23.0446574064       -3.8687144571       17.7250488942
  H        22.4662007958       -3.7839216428       18.4993566899
  H        23.7786762871       -3.1846661069       17.8937097683
  O        30.3461278599       -8.4022231845        6.2167842011
  H        29.6822298082       -9.1329304321        6.0880603855
  H        30.1925776860       -7.9301795727        7.1177041014
  O        16.0124095604       -7.9174488726        2.0803520999
  H        16.3973110954       -7.6677927453        1.2176820870
  H        15.0624146125       -7.5338040742        2.1425578105
  O        19.3701859303       -8.9768934007       -0.5139479319
  H        20.2599714845       -8.6309410406       -0.7236121343
  H        18.6577919675       -8.3179683870       -0.4563387498
  N        21.1716487662       -5.1339783934       16.1596717849
  H        20.8053771846       -4.4882441092       15.4045759394
  H        21.6860114488       -5.9495303848       15.8339151933
  H        20.4085507969       -5.4843669474       16.7327904638
  H        21.8145887206       -4.5343932400       16.7764401527
