     194
 CELL 12.4294 12.4294 12.4294 90.0 90.0 90.0 i =    79620, time =    39810.000, E =     -1097.1266390388
  O        16.1048776132        1.4075685572       13.0641099913
  H        15.6730704426        0.5493546147       13.0364348237
  H        16.1697298225        1.4967656629       14.0734973462
  O        20.1721908583      -11.3271311479        8.7810427356
  H        19.6269645522      -11.2191894830        9.6104982178
  H        20.8343201685      -12.0738578309        9.1087044713
  O        18.8236928457      -10.4758065664       11.3839156671
  H        18.8454336080      -10.0554940457       12.2147973870
  H        18.3214989177      -11.2899097681       11.6536843107
  O        12.8159636057       -2.8839123454       12.5806184157
  H        12.9181964466       -3.5626954956       13.2644863094
  H        12.1887919983       -2.2163891717       12.9710310212
  O         6.6681235763       -8.9549577725       13.6209876463
  H         6.6884364542       -9.8223187672       14.0719162774
  H         7.6142599294       -8.7273670746       13.7250950725
  O        24.1438059235       -6.9113990505       23.5386248707
  H        23.6248241193       -7.0809009808       22.7331278712
  H        24.6812564334       -6.1187954552       23.3620220288
  O        17.0393677996       -0.9287039166        1.9921217650
  H        17.4772841704       -0.1190539251        2.3388851061
  H        17.3597861910       -1.0977847529        1.0853735859
  O        21.6515861967        3.2341637931       11.5027927460
  H        20.9592460073        2.6308867369       11.1202522867
  H        21.2824881201        4.1738789107       11.3194106770
  O        13.9318617870       -6.3691638795        3.5877705656
  H        14.1213045035       -7.0898851591        2.9469784170
  H        13.4101861733       -6.8305232455        4.3313328510
  O        17.3262837072       -2.3586217374        9.6588253445
  H        17.2820310886       -3.3369499713        9.8747771209
  H        18.0630951788       -2.2338670855        8.9442203852
  O        18.6110325306       -8.1977062937        4.3327619559
  H        19.2217387009       -8.1384740310        3.5777042278
  H        19.0065726345       -9.0350519681        4.8634770361
  O        13.7106798481        0.4184585893        9.7922667174
  H        13.2302636097       -0.3645433695        9.4166138331
  H        13.9431616377        0.1435043027       10.7279473009
  O        10.6625671349       -1.0798034754       13.4530454560
  H        10.1614680350       -1.2772740009       14.3047286556
  H        10.6968395002       -0.1159924503       13.3539468365
  O        20.4910909069       -6.3911577021       10.9701238922
  H        20.9727036587       -5.7360858805       10.4753096911
  H        20.2180984950       -5.8564672067       11.7330544848
  O        14.9859691745       -1.0497188149       11.6990281956
  H        15.4831388986       -1.6170882204       11.1240416073
  H        14.3230472538       -1.6738561220       12.0553059156
  O        21.2135292853       -2.4007013711       12.0872390246
  H        21.7078662102       -2.9456816644       11.4094561615
  H        21.8846197440       -1.6957945556       12.3674739727
  O        20.8975941301       -4.7414192538       13.2445603856
  H        20.3834537229       -4.8846542355       14.0429385385
  H        20.8345309276       -3.8186420365       12.9962701637
  O        18.9518613376        1.0214733300       14.9276706774
  H        19.0681540896        1.2357501971       15.8776368891
  H        19.7517916940        0.5755702582       14.6378238676
  O        18.3775418540        5.4178175560        9.2147458896
  H        18.0287838367        4.5171013690        9.4362093609
  H        19.2055128633        5.5091214203        9.8579520255
  O        13.3418566976      -11.2748141851       13.1020662331
  H        13.9325436769      -10.6068938808       12.7458795667
  H        12.4553420547      -11.0230314618       12.8875311320
  O        21.5981205649       -1.6477030761        3.5236267866
  H        20.5892865098       -1.8205356678        3.5786147007
  H        21.8131075739       -0.8378092635        4.0607127073
  O        14.2662484839        4.0423329923       11.1567067458
  H        15.0179417425        3.4966609226       10.8429086189
  H        13.4965153111        3.6618813430       10.7764232578
  O        23.4567803995       -1.4571746547       19.2241115490
  H        24.2102324498       -1.5291887665       19.8464275749
  H        23.4758530105       -2.2960030880       18.6702168121
  O        13.4858225095       -3.5249951743        5.8001964257
  H        12.6752233070       -3.0531947023        5.4622590943
  H        13.2046188946       -4.2549694467        6.3651295289
  O        15.6313410752       -0.9366182021        5.5870538020
  H        15.2913851545       -1.4110792448        6.4506334292
  H        15.1636169704       -0.0832202371        5.6875712363
  O        22.9333601607       -6.9546147953       13.3332312917
  H        23.4063006105       -7.2307003833       12.4759215013
  H        22.3655956870       -6.1988402529       12.9804824467
  O        24.3954436467       -9.9186897872       10.0576956362
  H        23.7048195000      -10.1132043328       10.7616554008
  H        25.0062199064      -10.6951575295        9.9361177850
  O        21.7907016700       -5.3455964667       19.5009199972
  H        22.2781481545       -5.0115496073       18.6846454867
  H        20.9970036206       -5.9364974046       19.2354059051
  O        13.2091176279       -5.9719450738        7.5104266083
  H        12.4053834827       -6.3613667107        7.8782134700
  H        13.8803570639       -5.9022938173        8.2378456318
  O        16.4773967378       -9.6744263860       15.6914508192
  H        17.2549597118       -9.3044446456       16.1384523994
  H        16.1750183720       -8.9705580255       15.0773459327
  O        12.3411170423       -4.1895889431       10.4198023039
  H        13.2380088872       -4.6673957787       10.3596276129
  H        12.4367832415       -3.6768025816       11.2843988290
  O        17.8334236646        0.0567078414       19.3924637714
  H        17.2186523377       -0.4732985061       18.8520687363
  H        17.2399138745        0.4783324820       20.0428176731
  O        17.1091860126       -4.9726386167       10.7294286555
  H        17.5926679610       -5.5847962429       10.1379917041
  H        17.4402513721       -5.1988047208       11.6252882161
  O        15.1338769360       -2.6515186495        7.9082190185
  H        15.4526962091       -3.5392393298        7.6487238054
  H        15.7494398273       -2.4355336128        8.6040054456
  O        28.0208185330        1.3568276013        8.1992438457
  H        27.6556113100        1.9119283180        7.4580282047
  H        27.3760056087        0.9395143949        8.7994043452
  O        22.8881579073        3.2232695347        5.2737556944
  H        22.2603334355        3.2901800789        6.0375353522
  H        22.8509002288        2.2862703377        4.9954659814
  O        22.8792057403       -3.7626235576       17.2570310651
  H        23.6032073255       -4.1373754054       16.6881708547
  H        22.5252861199       -3.0682450425       16.6008692054
  O        23.4400169141       -7.8582867418        8.5056578305
  H        22.6142298132       -8.1308314994        8.1016846561
  H        23.8979454888       -8.5510262741        9.0132762228
  O        19.5616684984       -6.9609430401       19.1724749680
  H        19.2501307874       -6.6787408495       20.0862438751
  H        18.8811469134       -6.7416567055       18.4973208994
  O        20.9516763173       -9.0305580202        7.3459415167
  H        20.6541924657       -9.9008794214        7.8098843058
  H        20.1908533306       -8.3816361252        7.3766394489
  O        12.5091882107       -4.6694621844        2.1826069435
  H        13.0140786570       -5.3552996274        2.7422918378
  H        11.9692622097       -5.2948555843        1.6760478846
  O        19.2825976119       -2.0900161744       20.0187049324
  H        20.1653697132       -1.8967115892       20.4348611043
  H        18.8023666444       -1.2007309316       19.8806710016
  O        18.4056031424       -3.8579467065       18.3553318247
  H        17.7407330809       -4.0696127096       19.0409036756
  H        19.1619750139       -3.4327239048       18.8170258234
  O        14.8552195082        2.1756317101        5.2555494607
  H        15.4227897769        2.5951365122        4.5595033575
  H        14.1664811357        2.9091456020        5.3861911944
  O        19.0061913694       -2.4330706933       16.3321501264
  H        18.5545577525       -2.7171921896       17.1769930119
  H        18.2749126934       -2.0039648436       15.8528365865
  O        23.2137877926        0.3156066567        4.6215997093
  H        24.1209891925        0.6466681935        4.3125395089
  H        23.4888176523       -0.1182686418        5.4652983588
  O        21.5274428618       -1.4781887145        8.9492832756
  H        21.6407379925       -2.2354373476        9.5115527045
  H        22.2405021613       -1.5635431130        8.2744257515
  O        18.3936552073       -0.9680496550       11.9352908483
  H        18.0936367400       -1.2712020120       11.0781039704
  H        19.3144784903       -1.2961110073       12.0093380191
  O        13.6742097936        0.3850299809       15.8053006695
  H        13.6796078366        0.8022893473       14.8648410429
  H        14.0476610566        1.0967331333       16.3502178155
  O        12.8324971768       -1.9677253096        8.7394760743
  H        13.7512877267       -2.2253075024        8.4569243274
  H        12.5058596246       -2.7092614736        9.2288089275
  O        28.8551775556       -5.1757778914        7.2872141209
  H        28.8575365323       -5.8605785278        6.5595565599
  H        28.6885087168       -5.7464506820        8.0710026606
  O        14.6052551403       -5.7812224210       10.1851395599
  H        14.5539471921       -6.7347321095       10.4888700897
  H        15.4787333715       -5.4324253962       10.5968900839
  O         9.5827110417       -4.5380423507        9.6689289850
  H         9.6628873046       -4.8155157410        8.6895250971
  H        10.4618093683       -4.6746552107       10.0987061270
  O        16.6772546960        3.3620846440       10.1043640176
  H        16.2793527503        2.8127081943        9.4359218525
  H        17.2640681568        2.7477715479       10.6012220636
  O        19.3345494440        1.9743093612        5.4205656672
  H        18.6211009784        1.5230856838        5.9669103432
  H        20.1027079866        1.9094747077        6.0285727443
  O        17.3254304928       -6.3241048737       13.2482782662
  H        17.5158206194       -5.7323180167       14.0136141984
  H        17.9552948614       -7.0409916210       13.2102637475
  O        16.5205536610       -6.4608841617       17.1015355889
  H        16.9260057647       -7.2479789634       16.6955065432
  H        15.5439330496       -6.4391186692       16.8982512658
  O         8.1097310999       -5.4114846905       16.2883301594
  H         7.4122555702       -5.1511234847       16.8765514584
  H         8.9094367259       -4.9766528734       16.6475170015
  O        23.1455319737        1.7512633131       13.2014927053
  H        22.5308270502        2.1735551116       12.5394544717
  H        23.0006247049        2.3315466584       13.9410442811
  O        16.9007555247       -4.4339180217       15.1886945512
  H        16.7992576623       -5.0351896640       16.0423279635
  H        17.7188830542       -3.9347660160       15.4657860216
  O        25.4923518135       -8.0710288350        5.6870917234
  H        24.5478525255       -8.3409104441        5.8412188101
  H        25.6616161639       -7.4649084610        6.4828296171
  O         9.2289380394       -8.7681658582        2.1064252136
  H         9.6173232286       -7.9480518637        1.5708322626
  H         9.4331460765       -8.6206373452        3.0353648456
  O        15.1451819907       -8.0026758598        1.5249961335
  H        14.6319871517       -8.2003586415        0.6897312697
  H        15.8470924035       -7.3516703775        1.3233667338
  N        14.6651029380       -2.4411157090       15.7565790694
  H        14.9221051035       -2.4134664974       16.7662046847
  H        13.7595149215       -3.0056497539       15.6431579436
  H        15.4317650431       -2.8786965062       15.2521922358
  H        14.5232469465       -1.3795660404       15.5458223878
