     194
 CELL 12.4294 12.4294 12.4294 90.0 90.0 90.0 i =    47220, time =    23610.000, E =     -1097.1191352434
  O        -0.1727004862        1.3814383568        9.8914986629
  H        -0.6155605069        1.4243243344        8.9901656451
  H         0.7147860035        1.8086888975        9.9134684829
  O         6.0352358619      -10.2375057638        7.2724364293
  H         5.3315239924       -9.7247496648        6.8250744267
  H         6.8109041365      -10.3011035085        6.7306899679
  O         2.5537428139      -10.2634998009       10.1073377130
  H         2.9574166531       -9.3575829569       10.1241194816
  H         3.2657801534      -10.8448373199        9.6819633984
  O        -2.6314648342       -1.7667921675       11.3190929868
  H        -2.9190548402       -2.7666027963       11.4601451080
  H        -2.8102058598       -1.3120106351       12.1526312006
  O        -8.1835802411       -8.3521160912       11.4309296632
  H        -7.9070148830       -8.7429196263       12.3179257548
  H        -7.4550481459       -8.5624568793       10.8444709096
  O         5.4303844272       -4.4474725003       19.4263678704
  H         5.2368107668       -4.2407342311       18.4646611978
  H         6.1950345053       -3.8012776295       19.5734000785
  O         2.0687265484        2.2927011404        0.4098168037
  H         2.0863446067        3.2746996742        0.4915423666
  H         2.3265868302        2.0838160813       -0.4672968145
  O         6.8018189646        4.0206951396        9.4721313561
  H         6.3604949937        3.4675202988        8.7876425395
  H         6.6237701006        4.9902579119        9.4184618709
  O        -0.6051786519       -3.0472836057        2.0369507935
  H        -1.4291062626       -3.6328441053        1.8821604021
  H        -0.2966997380       -3.1953763766        2.9400346348
  O         3.5367574669       -1.6274971510        6.9966451954
  H         2.5544524112       -1.7770105601        7.0090595319
  H         3.9264108442       -2.5084760532        6.9583387778
  O         4.0444609422       -6.2945529436        2.5206640471
  H         4.8653877123       -6.1596956664        1.9927417076
  H         4.2295203802       -7.0265689290        3.2085734943
  O        -0.4088557767        3.6853346146        7.1638347603
  H        -0.1080522834        4.3022655232        6.4203086026
  H        -1.1800486571        3.1560342184        6.7634334851
  O        -4.4980101422        0.6563125473       12.5173670756
  H        -5.0985594783        0.4257844986       13.2718535758
  H        -4.0066847913        1.4870577184       12.7546064812
  O         4.2018452364       -6.5311576396        8.1413086942
  H         4.8860675240       -5.8350998822        7.8473740313
  H         3.7345896150       -6.3164729741        8.9902062047
  O         0.6848507642       -1.4650553927        7.8761207559
  H         0.7945124581       -2.4494568221        8.1427493866
  H         1.0763562521       -0.9696851215        8.6405804808
  O         6.6801553399        0.7465246063       10.1772720310
  H         7.5651535262        0.6298818095        9.7690275303
  H         6.9518988869        0.8798258278       11.0807190671
  O         5.1071872510       -4.0515693869       10.5858490658
  H         4.3555731903       -4.5868273933       10.7779613121
  H         4.7532903264       -3.2916902829       10.0989764380
  O         5.3421208169        3.2431939856       14.0151678484
  H         6.2377804807        3.6884384046       13.8693678628
  H         5.0977148841        3.5551063519       14.9529967838
  O         3.9217399537        3.6943885531        6.4844635330
  H         3.1969889109        3.0700376759        6.6513520441
  H         3.8942415326        4.4387550359        7.1558044440
  O        -0.8338259222       -9.5381060685       12.5872619807
  H        -0.0577738301       -9.9828106884       12.3591538191
  H        -1.4348544050       -9.6062183604       11.7986496834
  O         5.4503512394        0.4540311744        1.7318936406
  H         5.2241178801        0.4231614424        2.7237303144
  H         5.4908502830        1.3741652309        1.5289226265
  O         0.4768890962        6.1137267005        9.7764794809
  H         1.2657420455        5.6213823287       10.0903463120
  H        -0.3180048138        5.4801660129        9.6509917154
  O         8.3342649088       -2.1233693373       15.0698657891
  H         7.4329683599       -2.1874050868       14.5997303662
  H         8.8436873848       -1.3295954439       14.6072479537
  O        -1.8926607024       -0.7573243508        1.8088682425
  H        -1.3745557132       -0.1366039693        2.4003176033
  H        -1.3827435099       -1.5991871605        1.9282555511
  O        -1.1693473242        1.0511226507        3.7462347830
  H        -0.6269149518        0.3569477545        4.3510476688
  H        -0.5139290946        1.7542663034        3.4918777478
  O         7.3948984674       -5.2296047862       10.0676555020
  H         7.6412972985       -5.2413397515        9.0702950214
  H         6.5077971096       -4.8591937891       10.1061618411
  O        10.4288600581       -7.5253554534        9.4221832126
  H         9.8629437182       -8.0297871548       10.1292905598
  H        10.7874222604       -8.2518184339        8.8357944981
  O         6.0005718589       -2.7274538181       13.6422458583
  H         5.2795489787       -2.4684750284       14.2573393945
  H         5.8610054015       -2.2784185041       12.7625545904
  O        -2.0379382396       -3.9953711439        7.0807225975
  H        -2.5012779354       -4.8114928536        7.2401575846
  H        -1.0891789089       -4.0581109636        7.4161702254
  O         1.5311984014       -7.5463552837       13.7452480810
  H         2.3538855480       -7.0816356871       14.0149163139
  H         0.9141436001       -6.8894449087       13.3638922036
  O        -3.4253658521       -0.4530664113        9.0799435380
  H        -3.9306021870       -1.1546287901        8.5467302685
  H        -3.2297219574       -0.8481119425        9.9560984579
  O         1.6560327289        0.0778839507       14.3328240012
  H         2.1023323472        0.9454207547       14.0274161618
  H         1.5046571865        0.2550339266       15.3381124658
  O         2.2509605180       -5.6485938069        6.2968126049
  H         1.5149460689       -6.1915566611        6.0059577520
  H         2.7360992150       -6.0020755948        7.0640619812
  O        -0.1740066173       -0.8886082798        5.1685997327
  H        -0.7565884622       -1.6381242361        5.0061694139
  H         0.1833204139       -1.0433348690        6.0548896215
  O        15.0101558981        1.6175922449        4.2388479336
  H        14.7130212993        1.9050918821        5.1061350048
  H        15.9178100822        1.2512781491        4.4559019261
  O        10.2287988740        3.5516501010        2.1748628753
  H        10.1693147998        2.7321381916        2.7195460145
  H        10.9250575252        3.4708431692        1.4708031362
  O         9.5715876090       -4.5256839710       14.2122600032
  H         9.4465882907       -4.7495036581       13.1951373243
  H         8.9716938071       -3.7541198385       14.4123345075
  O         8.6058066038       -6.0513201706        7.6348210641
  H         8.2531171133       -6.4500960817        6.8261256824
  H         8.9985440305       -6.7900010847        8.1511297342
  O         4.0094964166       -4.4589918775       16.8823009827
  H         4.0566195501       -5.0123916097       16.0538594676
  H         3.3747279861       -5.0296448309       17.3741046070
  O         7.6569702145       -7.4626461447        5.0702702303
  H         8.1186819051       -8.3614020328        5.0611003321
  H         8.3647231100       -6.8525750094        4.7608527075
  O        -3.1291660560       -4.4800332381       -0.7724079466
  H        -2.2732579839       -4.8690513782       -1.1230105340
  H        -3.9353262632       -4.8236200181       -1.3227779779
  O         4.8365609148        0.0243990548       16.9831728509
  H         5.7104167207        0.0674809722       17.4638142528
  H         4.3537305944       -0.7025463215       17.5254045773
  O         3.2633954558       -2.5451690332       14.9037086770
  H         3.3545782364       -3.0264757702       15.7964619097
  H         2.7107135746       -1.7243001585       15.0439201932
  O         0.1275508008        5.3496296970        5.0068662501
  H        -0.6854522452        5.8257281326        4.7697276590
  H         0.4766803619        4.6119121114        4.4565977728
  O         5.0443662102       -0.9880262342       11.4213272436
  H         4.6297302306       -0.5085547280       12.1166950937
  H         5.5268756932       -0.3686831043       10.8536430584
  O         9.2128981039        1.6410666595        5.7117222020
  H         9.8944785041        1.4997898681        4.9853122303
  H         9.6275525674        1.0998964874        6.4272695702
  O         7.5780606121       -0.8840292839        5.1781826094
  H         8.0480935726        0.0120636341        5.2657061575
  H         7.9079900955       -1.2546222803        4.3013133843
  O         4.2297056656        0.6046269130        8.8002274749
  H         4.0326477964       -0.2348661839        8.3197337198
  H         5.1391031036        0.9350729870        8.6048772666
  O         0.6407653602        3.1700380474       15.8682252518
  H         0.7260633940        3.6463841098       15.0607164239
  H         1.5046237827        2.6449543696       15.9359416374
  O        -1.4988197155        0.6543147615        7.4763181812
  H        -1.0378695908       -0.1617849353        7.1455842145
  H        -2.1385412157        0.2053498543        8.1558508767
  O        10.6216635486       -2.8396411741        4.4571140881
  H        10.3368825837       -3.3809496108        5.2195989515
  H         9.8550135878       -2.5453057502        3.9771717398
  O         0.6383132329       -4.1139650495        8.1235122190
  H         0.6377159036       -4.7367512100        8.8456881495
  H         1.1956080352       -4.4932778136        7.4317849179
  O        -4.5306268237       -2.7893875972        7.3444050355
  H        -3.5426030516       -3.0428956435        7.3936703831
  H        -4.5836474561       -2.0987275686        6.6324886798
  O         1.8043228904        1.9800656427        6.9840779350
  H         0.9783284553        2.5193897181        6.9850750407
  H         2.1547684207        1.7872110307        7.9027185617
  O         5.1857694358        4.4680565111        4.1358467995
  H         6.1216975258        4.7071931962        4.3644758918
  H         4.6407528473        4.1547667498        4.9345120053
  O         2.9058623612       -6.0692527809       11.1943648010
  H         2.4227521053       -5.4894379434       11.8200588914
  H         3.5552782112       -6.8172954292       11.5996921590
  O         1.7867378793       -4.0716718240       12.8977724626
  H         2.4285036480       -3.5723621198       13.4578784411
  H         0.8456785637       -3.8374270088       13.2628824686
  O        -6.1632334835       -6.0236728557       13.1700524292
  H        -6.2113953648       -6.3269680723       12.2277187439
  H        -6.1924055367       -5.0405275729       13.1364125082
  O         8.9087937209        3.5686071183       11.0732025109
  H         8.0895575900        3.6183492254       10.4493138797
  H         8.5765298004        3.9284241487       11.9674937744
  O         2.1759137080       -2.1720042622       10.8766079222
  H         2.1409769211       -2.9591612050       11.4678773168
  H         3.0394328258       -1.7531730787       11.0907051613
  O        10.0215746003       -6.2432957656        3.9393690162
  H        10.2022331620       -7.0763436954        3.4142206102
  H         9.9832162698       -5.5657779651        3.2235696800
  O        -4.5537172679       -8.2571779478        0.9737985998
  H        -4.8586781639       -7.2829534762        1.1100471456
  H        -3.7506010823       -8.4162195542        1.5569382734
  O        -0.6202663381       -6.3234496209       -0.1104871806
  H        -0.9820895854       -7.1472463311       -0.5558860399
  H        -0.1287466368       -5.9896881654       -0.9063902199
  N        -0.1066290001       -0.6883836829       11.7747512105
  H        -0.1364257469        0.1266430137       11.0808313099
  H         0.7131456821       -1.2709120943       11.5759541961
  H        -0.9612788471       -1.2145366060       11.5763860114
  H        -0.1346130641       -0.1834601104       12.6327338297
