     194
 CELL 12.4294 12.4294 12.4294 90.0 90.0 90.0 i =    95620, time =    47810.000, E =     -1097.1318314978
  O        20.0722185260       -0.6838938844       14.0238206653
  H        19.5496491038       -1.4517262613       13.8012453587
  H        19.6809922391       -0.3460956374       14.8991856692
  O        26.0517466847      -11.1225605867       10.3358678936
  H        25.7788426768      -10.5869991489       11.1738101182
  H        26.4365834672      -11.9633188522       10.6653018138
  O        22.2201415120      -13.2136209630       16.6922523732
  H        22.1843457816      -12.2391523404       16.4125904061
  H        22.8550448719      -13.7511945545       16.1820758105
  O        18.1054473005       -2.7203538233       14.2519812146
  H        18.1871042122       -2.9753306738       15.2188599911
  H        17.1751781008       -2.5780207898       14.0777822508
  O        11.5027286396       -9.9343138059       16.7934221046
  H        12.2613746710       -9.7349252642       17.3957283499
  H        11.8485922847      -10.6033177366       16.1603718704
  O        31.3143401500       -6.6316247557       23.7169384146
  H        31.2446148396       -5.8031637762       24.2588179043
  H        30.3959746578       -7.0573070050       23.9118998595
  O        21.2441262117        1.9779617541        4.4060617531
  H        20.6705949190        2.6246733677        3.9022036072
  H        22.1256301558        2.3512710411        4.5403933283
  O        24.8683614652        0.5664572336       15.0257081083
  H        25.7112901102        0.1465111056       15.2558704746
  H        24.3300949600       -0.0117985698       14.4408617248
  O        18.8460449071       -6.1236040167        4.0628611797
  H        17.9571008382       -5.7964659651        3.7770297814
  H        18.7249493388       -6.2641473310        5.0201709351
  O        23.3676492669       -4.8144084601       12.1292079624
  H        23.8050614948       -5.6676134872       12.0308076982
  H        23.9980410902       -4.1390470031       12.3795597235
  O        22.9869417819       -8.3837111360        7.1825564430
  H        23.6783090178       -8.0508197911        6.5462890194
  H        23.1831608633       -9.2737893112        7.4901841153
  O        18.6618420255       -1.3691017036        9.9574259958
  H        18.5781710059       -0.6194293416       10.6578872764
  H        19.4558447607       -2.0348070323       10.1168516828
  O        15.1140760588       -0.0699162614       16.0345193248
  H        15.1413212768       -0.2576462931       17.0047090569
  H        15.8446557769        0.5872940335       16.0243302000
  O        25.4046131524       -9.8668444139       13.0264961185
  H        26.3356548717       -9.7268869817       13.3792836321
  H        24.9458040819      -10.4578347930       13.6728466782
  O        21.9965876237       -4.0861084432       14.3259668269
  H        22.4448793445       -4.5122912480       13.6047204520
  H        21.4275087590       -3.3544328848       13.9149316543
  O        27.6722495007       -2.9244906064       14.5922909197
  H        27.0070461710       -2.7313941523       13.9107416303
  H        27.7820414475       -2.1044957144       15.1744579112
  O        28.5994340563       -5.0760407100       16.2859282537
  H        28.1800753839       -4.6214354070       15.5204050355
  H        28.1840845315       -4.6564502869       17.1142321687
  O        25.6503244202        2.6806922117       19.1473439357
  H        25.1908762928        2.5005812086       19.9828340131
  H        26.4321151632        2.0271804147       19.0652506267
  O        24.2546460265        5.8185116611        9.3473789100
  H        23.7028238254        5.2832445522        8.7606458657
  H        24.2704530851        5.4678720884       10.2506582794
  O        17.1056233148      -10.6057939160       16.9544829697
  H        16.9601373734      -10.1887434095       17.8498736586
  H        17.6335737916      -10.0049458261       16.3846623642
  O        27.8834867685       -1.2912810403        6.1641061229
  H        27.2504447147       -1.0686392535        6.9477577125
  H        28.7217872731       -0.9675699889        6.6062770435
  O        22.4099330291        2.9884626268       12.8954148384
  H        22.5219911559        3.1541163523       11.9379688038
  H        22.3685571772        2.0295897877       12.9695516449
  O        29.0214919208       -3.2897654196       23.1801155242
  H        29.5288027330       -2.6240486949       22.6125313030
  H        28.6644971341       -3.9445578520       22.5106058623
  O        20.9658421190       -3.3716888408        4.6875366843
  H        21.3360315090       -2.5138230374        4.4231901973
  H        19.9771590942       -3.3719242612        4.7116156821
  O        22.4162061077       -3.2435585909        6.9032924865
  H        22.2496338074       -3.9157076061        7.6003772192
  H        21.7551176678       -3.4923834295        6.1724328998
  O        26.2822675380       -7.3317111915       15.5001606913
  H        26.6904202978       -6.4485592455       15.4293123030
  H        25.4934312560       -7.2445611817       14.8741545758
  O        31.2461453755      -11.8456423587       12.1974382577
  H        31.4411021379      -10.9220203863       12.0475791676
  H        31.8799058398      -12.2658348692       12.8404320610
  O        28.1834633527       -4.7787368429       20.9250515938
  H        28.9913459013       -5.1023933394       20.5109747470
  H        27.6986515004       -5.6226236001       20.9187394981
  O        20.4154019478       -6.7163233048        9.1935533938
  H        19.7996071053       -6.6632390257       10.0149366703
  H        20.9066002079       -7.5584846353        9.3779966648
  O        19.3287084688       -8.8029990155       15.3628768701
  H        19.4006495766       -8.7870708461       14.3700283869
  H        19.2930555852       -7.8369161334       15.5258300005
  O        18.7224934222       -4.2130297583       12.0862344629
  H        17.9507552618       -3.8028227785       11.6117450078
  H        18.6977329787       -3.7570156307       12.9717907082
  O        24.8899470909       -2.4704035931       21.8743666453
  H        24.2949681565       -3.1750830749       21.5186514277
  H        24.2423091420       -1.8829122353       22.3114262203
  O        24.6535191113       -7.3985845210       11.9620421623
  H        25.4603801773       -6.9050681335       12.3360382198
  H        24.9182311257       -8.2909822552       12.3189850588
  O        22.1112350670       -4.8210389404        8.9997549651
  H        21.4215249965       -5.6331666822        9.0725500018
  H        22.8985423911       -5.2166289483        9.4819526233
  O        35.1040985738       -0.9336981761       10.5010929165
  H        34.6539217128       -0.1922662607        9.9960122621
  H        34.3686003105       -1.6168671633       10.5434478042
  O        29.7422287582        2.2008908715        7.0483410002
  H        29.2208663755        2.5415422486        7.7771642757
  H        29.7753512649        1.2638871205        7.3173994486
  O        27.4587614020       -3.9148112499       18.3720583247
  H        27.6694998744       -4.2501953939       19.2939218383
  H        27.6110610694       -2.9365212115       18.5046098107
  O        29.2965091630       -8.8128834283       11.9054267702
  H        28.9672130316       -8.9531826337       10.9953965654
  H        30.1753656350       -9.2291825861       11.9775009303
  O        26.5930232209       -7.4184360276       20.5639336006
  H        25.8099858851       -7.0977115186       21.0876525192
  H        26.0625234412       -7.7523531558       19.7852893879
  O        28.2590727160       -9.3371081450        9.2860419888
  H        27.8439917078      -10.1929084245        9.6821077305
  H        27.4594880426       -8.8331608805        8.8757220647
  O        18.0977451229       -2.7007047896        4.7100850829
  H        17.2838772590       -3.0461320944        5.0992575361
  H        18.1542586060       -1.7506611817        4.9679382707
  O        25.4258436374       -2.9258624883       25.3953165378
  H        25.1702043940       -2.7881264505       26.3597382279
  H        25.6331601007       -2.0796293598       25.0285446419
  O        25.9957997620       -0.4887091580       20.3018993758
  H        25.6919831085       -1.3007901220       20.8188221081
  H        25.1946996668       -0.4529708162       19.7456895684
  O        20.3577675701        1.3511378182        6.8144185987
  H        20.7249854705        1.7105034027        5.9626071619
  H        19.4938492968        1.8540751161        6.9002430526
  O        23.4425518533       -0.6997291192       19.2695449867
  H        23.0686705759       -0.6083945066       18.3789079209
  H        23.0070039274       -1.5493077178       19.5476181797
  O        30.4151701143       -0.3628645043        7.3045872978
  H        31.2773927325        0.0900166702        7.0206447038
  H        30.7497957863       -0.8833423883        8.0951308181
  O        26.9205983628       -0.8064193536       11.8553662392
  H        27.5486856165       -0.2485832835       12.4846497827
  H        27.4407744430       -1.6309325030       11.5641431003
  O        23.9910067557       -2.5342308888       15.3706360837
  H        23.3818872352       -3.1374149724       14.9500273141
  H        24.2877302277       -2.9312339746       16.2024801002
  O        19.1271298707       -0.0882830679       16.5712094179
  H        18.4410052031        0.6163875382       16.6539420625
  H        19.9229417594        0.1712486008       17.0628434575
  O        20.8551043351       -2.9669277801       10.4409916932
  H        21.4476031961       -3.6728853576       10.0509266423
  H        20.3828519202       -3.5223628148       11.0998422278
  O        34.4680792569       -8.9751434011       10.3197013271
  H        35.2316113448       -9.2189278413        9.7357352214
  H        33.8372065189       -9.6965262661       10.0376113726
  O        20.7201932591      -11.2999578413        9.3370581941
  H        20.6992384060      -11.0253685562        8.3847030448
  H        19.8002598308      -11.5472406281        9.5524057193
  O        14.3445503571       -5.8213869468       12.9598693648
  H        15.1859004079       -6.0873859420       12.4902049479
  H        14.0457166741       -4.9799141913       12.5589012634
  O        22.7902189097        0.0018483965       13.1991706926
  H        22.7773384945       -0.2242005067       12.2361969096
  H        21.9515931575       -0.4198006465       13.5125303128
  O        23.5754839580        1.6820937611        8.7499513887
  H        23.5402660844        1.0220983826        8.0165666199
  H        24.3782270265        1.3973939995        9.2519422738
  O        23.4155311453       -7.7157744464       14.8689709290
  H        23.2573130916       -8.3087384737       14.1306998431
  H        23.6587032039       -8.2989839367       15.6192428207
  O        20.6178135071       -7.6242679768       18.7251794799
  H        21.4764556926       -8.0233550980       18.9016573338
  H        20.4051013212       -7.2196860331       19.6014672044
  O        12.3485833200       -7.0748850238       17.9631663440
  H        12.2920484716       -6.1021315269       17.8338757792
  H        12.9833619433       -7.3527203720       17.3406696016
  O        28.7178966807        0.3532391214       13.3616455618
  H        28.7147037988        1.3282956844       13.5912286196
  H        29.5428614230        0.5308212996       12.8195122652
  O        24.6472043592       -4.2210852600       17.7665749982
  H        24.1803650780       -3.6346794456       18.3822342049
  H        25.5591319793       -3.9630952060       17.7541500269
  O        30.1818767717       -6.6444342909        7.5271023702
  H        29.5464278693       -7.3260799998        7.3182124090
  H        30.8536563669       -6.9040837372        8.1409506885
  O        15.5312428773       -9.2756561078        1.7761142538
  H        15.8405342823       -8.8327966898        0.9770902730
  H        15.1629441066       -8.5819765822        2.3720873781
  O        19.6893441665       -8.9540344551       -0.1096511293
  H        20.6377853411       -9.0658773119        0.0141450925
  H        19.7421662779       -7.9887734679       -0.3084078542
  N        21.9561005585       -5.9265220076       16.3952118472
  H        21.3204470241       -5.2291606741       16.0065593900
  H        22.3182982356       -6.5463351724       15.6556827355
  H        21.5056707423       -6.4419955282       17.1748596486
  H        22.6924733173       -5.3005586649       16.7250945233
