     194
 CELL 12.4294 12.4294 12.4294 90.0 90.0 90.0 i =    50420, time =    25210.000, E =     -1097.1641622007
  O         0.8249327896        1.5658678946       10.5139777603
  H         0.6447558841        1.0978581811        9.6008614705
  H         1.7924324091        1.7984764023       10.4234378723
  O         7.5588519357       -9.2054046324        8.5892888711
  H         6.6514688387       -8.8622209732        8.5111775769
  H         7.4427551372      -10.1691140345        8.5580367896
  O         4.0286606782      -10.6124411919        9.9326830232
  H         4.3505274996       -9.7840449185       10.3549814771
  H         4.9208479102      -11.1714702277        9.8413943980
  O        -1.3413915978       -2.0890440190       12.0382023350
  H        -1.3712373129       -3.0101737908       12.3973612040
  H        -2.0821066303       -1.6798300426       12.5495309564
  O        -7.1521284223       -8.3946788808       11.2643142821
  H        -6.8694327891       -8.7020962576       12.1707421210
  H        -6.2720516743       -8.3306410663       10.8333428174
  O         6.4866618130       -3.4198951566       19.6436854701
  H         6.3627208201       -3.8857177055       18.7754307680
  H         7.4744957592       -3.2889468133       19.7642925238
  O         3.0136713763        1.7889228792        0.3448432205
  H         3.1303160154        2.8035271624        0.4407500500
  H         3.6281704016        1.4941837228       -0.3696943783
  O         8.3107531275        3.9774809421       11.0533391422
  H         8.1354241682        3.6626510020       10.1643341061
  H         8.8733653714        4.8088845424       11.0178103482
  O         1.0494382401       -3.7752137425        1.9416124283
  H         0.2950797248       -4.3861911774        1.9958488240
  H         1.2589599923       -3.4454872689        2.8640815693
  O         4.5571218329       -1.2294583493        7.2496590048
  H         3.8224000428       -1.3129942266        7.9117669587
  H         4.9847015606       -2.1187025006        7.3364410913
  O         5.0811223123       -6.2970639644        3.0057893173
  H         5.7970361971       -6.1835051037        2.2258326271
  H         5.4170954362       -7.0733041400        3.5402701597
  O         0.5698059668        3.0188063166        7.1890496328
  H         1.0175066411        3.4872053206        6.4461051658
  H        -0.1854035642        2.5579537101        6.7633045184
  O        -3.1806015356       -0.3085144185       13.0932569221
  H        -4.0423017872       -0.3409039195       13.5737299536
  H        -2.9726708976        0.6454884510       13.0992889640
  O         4.8307502376       -5.2858119577        8.1577877211
  H         5.4280126785       -4.5674046226        7.8391439245
  H         4.6809723819       -5.2318893821        9.1248490628
  O         2.4353550803       -1.8519843140        8.8144766474
  H         1.7776786467       -2.6335058809        8.5756539234
  H         2.5937607903       -1.8820533051        9.7654215040
  O         7.9659505663       -0.6823259238       10.4311696206
  H         8.6852213026       -0.8756826769        9.8226740166
  H         8.3656049052       -0.4776888573       11.2940968117
  O         7.0661529611       -4.7707586293       11.5266470232
  H         6.2320217153       -5.3387059404       11.3293563459
  H         6.7893506937       -3.7956853145       11.4297638420
  O         5.8125183522        2.5858438669       13.7600842274
  H         6.4814121717        3.2235111231       14.1910756901
  H         4.9411191587        2.7932852401       14.2005379138
  O         5.0020975620        4.3702571163        8.3003982493
  H         4.6121611455        3.7467102526        7.6650813674
  H         4.9996518780        5.2607954125        7.9708090224
  O        -0.4426180467       -8.9219126047       11.9118216916
  H        -0.0063355770       -9.6388916130       11.3599409165
  H        -1.0683591780       -9.4340051685       12.4968937610
  O         6.4910189726       -0.2980818459        1.5084475714
  H         6.0991426877       -0.6546126004        2.3585464275
  H         6.1900863053        0.6480635512        1.4963368815
  O         1.5963285044        6.5395854839       10.0955707548
  H         2.5447876054        6.1884896655        9.9677925663
  H         1.0360217814        5.7298238960        9.8304901877
  O         9.9653232128       -2.3145680025       16.1406935215
  H         9.2491156124       -2.3762827046       15.4951034087
  H        10.6729768346       -2.0377353074       15.6157539068
  O         0.1944875567       -0.9294404177        2.6967865927
  H         0.4301799127       -0.1852256107        3.2823516162
  H         0.8062189655       -1.5563016219        2.9368305100
  O         1.1207720823        0.9391821043        4.4354047933
  H         1.8151726918        0.4698713621        4.9803104252
  H         1.6948387713        1.6187278506        3.9735515827
  O         9.6131280867       -5.6580834889       10.7482211904
  H         9.7971683442       -5.6449984184        9.7891796583
  H         8.6454977566       -5.3133131025       10.8350591320
  O        12.0639916726       -7.7175797682        9.3217814920
  H        11.7720174262       -8.1220196508       10.2045015624
  H        12.3857802493       -8.4590283027        8.7309531453
  O         7.9792674086       -3.1384840391       14.4311618708
  H         7.1064671475       -3.3030576523       14.8936706218
  H         7.6181405763       -2.8206623936       13.5444826052
  O        -1.0409519310       -4.0423572636        5.9364783558
  H        -1.4218669651       -4.7671720482        5.4143436665
  H        -0.6993313632       -4.4848876395        6.7615087699
  O         3.0327514731       -7.9413274747       13.8532150881
  H         3.5579477295       -7.1676038831       14.1337968312
  H         2.1161417982       -7.5836159762       13.5214799719
  O        -1.8346881000       -1.2463534299        9.5648754760
  H        -2.2063509583       -1.7484911383        8.8599944896
  H        -1.7277662385       -1.7679863899       10.4301341890
  O         3.3570552634       -0.2386019454       14.5793399938
  H         3.1469473233        0.6104257761       14.0833256239
  H         3.1409860816       -0.2287608115       15.5419093387
  O         2.8051158535       -5.4321714686        6.0379666780
  H         2.4689583677       -6.4037882282        5.7707146245
  H         3.4636658358       -5.5333189934        6.7600122673
  O         2.9702528324       -0.8644535604        4.9983374455
  H         2.3890878768       -1.6743165550        5.0639905142
  H         3.6566786803       -0.9583845024        5.6788401858
  O        17.3551560301        1.8389205294        5.2363478285
  H        16.8056666489        1.7832513376        6.0771922268
  H        17.7191831144        0.9026954695        5.1474666168
  O        10.0543527427        3.0788309961        4.7842415192
  H         9.6564617027        3.6576742164        5.5036779763
  H        10.2249368411        2.2154017716        5.3013752884
  O         9.8678695844       -5.2573850041       15.6321947250
  H        10.1951709654       -5.2323811995       14.7122959481
  H         9.9477597232       -4.3161874251       15.8720359449
  O        10.3912185492       -6.0399495265        8.2369849457
  H         9.7931799469       -6.5661815795        7.6438283654
  H        11.0905189527       -6.7123239283        8.6149402833
  O         5.1633204399       -4.2776975092       17.2801770113
  H         5.0657971922       -4.9971480571       16.6163511716
  H         4.3544574185       -4.5354440956       17.8195563901
  O         8.6316296019       -7.6362795547        6.6412471456
  H         8.3719266344       -8.2439850388        7.4692336917
  H         7.6931602460       -7.5790137495        6.3026549104
  O        -1.3728522126       -4.7387641062        0.4455657678
  H        -0.7125808218       -5.4566151873        0.4226974473
  H        -1.7933063854       -4.9717280862       -0.4547044024
  O         6.1896933564       -0.6254088900       17.1614727498
  H         7.0773081581       -0.4611097613       17.4591425552
  H         5.8398405405       -1.4284188437       17.5969044479
  O         4.7731224485       -2.6080295116       14.8188251945
  H         4.7416503141       -2.8119704630       15.7634293259
  H         4.2672470490       -1.7815696876       14.7015658870
  O         1.6119372978        4.7180217037        5.2862471471
  H         0.8645263484        4.7865401580        4.6706719539
  H         2.1203791746        4.0838301230        4.6746595554
  O         6.1740527043       -2.0267335868       11.9191933068
  H         6.1179422668       -1.4806757990       12.7619061482
  H         6.7949640547       -1.5797211862       11.3396064291
  O        11.3701577911        0.9248415087        6.1261740185
  H        11.9808367283        0.7383596503        5.4039573051
  H        11.7614454462        0.6159800068        6.9620118056
  O         9.0229005093       -0.7432626158        5.6846142758
  H         9.5877411563        0.0437656137        5.9131056148
  H         9.4543143079       -1.2620685173        4.9220886049
  O         6.3287450420        0.6148788286        8.7951569945
  H         5.7680450027        0.1802933199        8.1305113127
  H         6.7902092268       -0.0386490222        9.4420958378
  O         2.7995654981        2.7511623683       16.1044421413
  H         2.9308553096        3.3775743105       15.3472832227
  H         3.6046804467        2.4641159855       16.5142917326
  O         0.2522286484        0.1277485301        8.3636702565
  H         1.0207797822       -0.4864865934        8.2230495999
  H        -0.3815022912       -0.3841436577        8.9286484452
  O        13.9341060862       -3.1982585154        4.6136633366
  H        14.3503505665       -3.9773407257        5.0040327622
  H        13.0485999184       -3.2778655269        5.0072109998
  O         1.1412582083       -3.9947414257        7.9250962974
  H         1.2489018928       -4.6425413454        8.6101894902
  H         1.7058039797       -4.3017385058        7.2185431244
  O        -3.3861863912       -3.0081548053        7.5711383723
  H        -2.9724652584       -3.7809284077        7.1249495160
  H        -3.2589778780       -2.1947243945        6.8780895430
  O         3.3258653574        2.1107519465        7.3908860023
  H         2.3735905196        2.4230418594        7.3345385385
  H         3.4912543427        1.9339720325        8.3527171632
  O         6.3032075373        4.5349831167        5.1096749650
  H         5.8387847207        3.6909645562        5.3752324287
  H         7.0522527643        4.1682125545        4.6062248374
  O         4.3293302204       -5.8905310284       10.8209157866
  H         3.9317059841       -5.3441096271       11.4641780304
  H         4.4775267266       -6.8322257431       11.1661052037
  O         3.4104467938       -4.4578412032       13.0281080169
  H         4.1479503442       -4.1911730353       13.6424942954
  H         2.5489145907       -4.3375317748       13.5141520542
  O        -5.0370652596       -6.0330455573       14.0700146628
  H        -5.1723086343       -5.7783271313       13.1197646874
  H        -4.5023758558       -5.3265155802       14.5317432473
  O         9.4067168671        2.3505646589       13.1093654129
  H         9.0881377874        2.9089218052       12.3832444459
  H         9.0945313785        2.7771710618       13.9732470469
  O         3.4460721813       -2.3101692368       11.3085131777
  H         3.4254875080       -3.1753602272       11.8258160507
  H         4.3380026602       -1.9138149184       11.4234716645
  O        11.9897735918       -8.0002559680        3.3994425813
  H        11.3122182209       -8.6264134524        3.8143003754
  H        11.4920158972       -7.2349123130        3.1621327250
  O        -4.2504303504       -8.3461272748        2.7592104580
  H        -4.1618447258       -7.4117870108        2.3409221711
  H        -3.5750131430       -8.6916429045        3.3452160407
  O         0.9468005647       -6.7803403442        0.3661418185
  H         0.3824617738       -7.5649918636        0.1952574023
  H         1.2322924033       -6.4560390088       -0.5425851661
  N         1.1286085079       -0.6767189657       12.3625272053
  H         1.0167378496        0.1365553549       11.7306958236
  H         1.8899222762       -1.3327493614       12.0741119395
  H         0.2456321783       -1.1628723831       12.3278958994
  H         1.3662786758       -0.4489734654       13.3198845713
