     194
 CELL 12.4294 12.4294 12.4294 90.0 90.0 90.0 i =    55620, time =    27810.000, E =     -1097.1071319621
  O         3.6503512293        1.8190574940       11.3239303180
  H         3.4668278162        1.3143276505       10.4588720759
  H         4.3746300265        2.3819494674       10.9714949886
  O         8.8988442138       -9.3106714598        8.8077088578
  H         7.8688504445       -9.3108106684        8.6234502713
  H         9.1933433058      -10.2515775350        8.6777198206
  O         6.6353041976      -11.2211862142       11.2411866269
  H         7.2882568977      -10.5417271765       11.4249636119
  H         7.1655379921      -11.9929085325       11.0826679392
  O         1.1725377125       -1.9781476258       11.9768284681
  H         1.0427894998       -2.8715146784       12.2899818271
  H         0.3492766075       -1.3527174439       12.2981045230
  O        -4.5182670288       -9.1579066243       12.6551223465
  H        -4.2649656770       -9.7242471180       13.3900321639
  H        -3.7151420905       -8.7699012198       12.2194706297
  O         8.2873734118       -3.8422073325       20.4607214903
  H         8.2816748078       -3.9991409965       19.5174191994
  H         9.2306662667       -4.0780858051       20.7699383573
  O         6.4476694384        0.5958862459        1.8799564890
  H         6.2672776240        1.5457531808        2.1967711437
  H         6.4508362785        0.5846258597        0.9181241578
  O        10.0155596790        4.0048416143       11.2675859153
  H         9.7031379167        4.0340150157       10.2807231309
  H        10.2649585814        4.9774245443       11.4175752046
  O         3.4872813312       -5.4527333652        3.1194643485
  H         3.8244203273       -6.4404622824        3.0714929116
  H         3.5384330427       -5.1772564501        4.0551656395
  O         6.7215285336       -1.5667889802        7.4111400287
  H         6.0593980100       -1.6556276105        8.1525224189
  H         7.4638123536       -2.2113916397        7.4942310486
  O         7.4878534373       -7.2664526413        2.7745851040
  H         7.6487162803       -7.7868783384        1.9794256452
  H         8.2813267357       -6.6931112321        2.9268697143
  O         3.6675073211        3.4571696015        8.5343806538
  H         3.7124863250        3.9741549795        7.6711438564
  H         3.0760530962        2.7147848883        8.2077958166
  O        -0.8103645263       -0.3268739406       12.3111375286
  H        -1.5138623863       -0.4305005214       13.0537928901
  H        -0.6558742334        0.6532392634       12.2399159769
  O         7.2360948328       -6.4074797723        8.8222418527
  H         7.4556029496       -5.4904071267        8.8706768222
  H         6.8665103116       -6.6679888214        9.6981168410
  O         5.0405442722       -1.6263409582        9.5603272566
  H         4.3525859971       -2.3913253713        9.3942735607
  H         5.4126384407       -1.8138055181       10.4459666329
  O        10.2468059065       -1.7600104292        9.7589486100
  H        10.5175845710       -2.5202972611        9.1808410348
  H        11.0030013911       -1.5249822751       10.3076638268
  O         8.8915329287       -4.7406525295       12.2479605954
  H         8.1443671277       -5.2838696968       11.8922626204
  H         8.6076049180       -4.3215878458       13.0985913982
  O         9.0808774085        1.7985540669       15.0484671044
  H         9.8713732671        2.3338930628       15.2147888152
  H         8.4858250702        2.0199679848       15.8000046816
  O         7.5932014415        5.0958594020        5.8742488836
  H         7.7331468482        4.2217565584        5.4597454402
  H         7.5963074934        5.0828036861        6.8569029005
  O         1.7883068457       -8.8895207544       12.4724174260
  H         2.3336044437       -9.6342091706       12.0598326002
  H         0.9288806139       -9.2520477603       12.5061577640
  O         9.6911077753       -0.6136958431        1.6995683459
  H        10.0365872842       -1.0556376181        2.5766246379
  H         9.3729608282        0.2717860010        2.0706868348
  O         3.1876579015        7.2800538822       11.4204990143
  H         3.9822234062        7.2645452585       11.9635491247
  H         3.0381198171        6.3616646721       10.9806226229
  O        13.0193219113       -0.4244895324       19.2625039396
  H        12.9537124079       -0.8940020490       20.1284318312
  H        13.1189517417       -1.1066154755       18.4980771507
  O         1.0555299304       -1.9268502530        4.5178455534
  H         1.7687552756       -1.3218184429        4.2417757491
  H         1.4877871436       -2.6062026857        5.0445844679
  O         3.4250026220       -0.2089798830        3.5916722342
  H         3.9531106152       -0.7161438043        4.2245763517
  H         3.3912120127        0.6676634256        3.9157114905
  O        11.1654117539       -5.9663575960       11.6236025245
  H        11.6632137628       -5.7835393496       10.7770126499
  H        10.4384353542       -5.2912742176       11.8122320241
  O        14.7942756775       -7.4199340101       10.2503706755
  H        14.5512726078       -7.8844283369       11.1052329175
  H        15.2633104805       -8.2351179697        9.7722734103
  O        10.9353741218       -3.6112521775       17.8434529618
  H         9.9476992755       -3.7096446745       17.6261048013
  H        11.1981416152       -2.7742596477       17.4177341644
  O         1.5374299872       -4.7090762274        6.9954346530
  H         1.4191708394       -5.5426768196        6.4116786213
  H         1.8454504956       -4.9910911507        7.8703144314
  O         5.5922328863       -9.2737584130       15.0297516926
  H         6.3203244491       -8.6493068965       15.0362460793
  H         4.8845965563       -8.8772018729       14.4738741791
  O         1.6941765016       -1.4627905105        9.2815191362
  H         2.1735840328       -2.2549261733        8.9877510385
  H         1.4224475112       -1.6961300838       10.1731889765
  O         7.1803717518       -1.6459355353       15.8628669232
  H         6.9725117656       -0.7110538270       15.4848634883
  H         6.2788997268       -1.6269499458       16.3862991969
  O         4.9955968297       -5.5218055870        7.2996792676
  H         4.7761058941       -6.4137863066        6.8905460699
  H         5.8305409670       -5.6825294914        7.8381391012
  O         5.0262443811       -1.6181204368        5.0849854326
  H         4.4839081462       -2.4415727147        5.2671117377
  H         5.5319486828       -1.4572862358        5.8524204509
  O        18.5801818994        0.9622543278        6.3300336367
  H        18.4247849057        1.5578046668        7.2004035047
  H        19.0276924530        0.1031140906        6.6663305032
  O        12.2993310701        3.5064173000        5.7977667215
  H        11.6328639933        3.6154800605        6.5206891707
  H        13.0783267156        2.9763808253        6.1291314325
  O        12.6113218081       -5.0220217710       15.7441396627
  H        12.7981080762       -4.7404942738       14.8573469375
  H        12.3421128892       -4.3158277529       16.3637511323
  O        12.8410209771       -6.1433119088        9.2143764285
  H        12.1570451882       -6.7604846467        8.8342788436
  H        13.5524270407       -6.7292150235        9.5683506513
  O         7.7577271179       -4.7316954122       17.2619655661
  H         7.6604191616       -5.6983132239       17.4813514426
  H         6.9330299323       -4.2529275770       17.2796973989
  O        10.8182910237       -7.6387186702        7.7206864065
  H        10.1183893973       -8.0940933002        8.2105563434
  H        10.3504786675       -7.2877656284        6.9169337655
  O         0.7562337182       -4.6345696637        0.5029684722
  H         1.6711226019       -4.9420296223        0.2735836874
  H         0.2183418273       -5.4014813941        0.0849149871
  O         9.6910003636       -1.1939243833       16.9611002990
  H         9.8127263448       -0.4288945822       17.5759300034
  H         8.8178368914       -1.2247496906       16.5628644338
  O         7.9852936937       -3.7310927067       14.4778531075
  H         8.2724536068       -4.1331530586       15.3088773679
  H         7.8283740388       -2.8199215234       14.6775152431
  O         3.9368979252        4.6086144883        6.1734107903
  H         3.1082443077        5.0803308187        5.8898681852
  H         4.0857199753        3.7836783261        5.5928230648
  O         8.1901141694       -0.9615433599       11.7398309715
  H         8.6745896045       -0.6912573399       12.5520942461
  H         8.8089165014       -1.6641559249       11.3691019432
  O        14.5579488591        2.0038866409        6.4979073449
  H        15.3281974766        1.9305707655        5.9553071131
  H        14.1993129687        1.0944420858        6.6390020023
  O        10.3615295763        0.9888940177        6.4548980013
  H        10.1068884202        0.6174152171        7.3795714126
  H        11.3078140496        0.9091385674        6.3871215160
  O         8.8785169427        0.2116944865        8.5349118264
  H         7.9740724362       -0.1506237983        8.4948909816
  H         9.2778355651       -0.4075031587        9.2115840234
  O         4.3076506243        2.3446231093       17.0995977450
  H         4.8097216212        2.8095270949       16.3446397826
  H         5.0332526838        1.8725565696       17.5744750228
  O         3.3387173356        0.6084825668        9.0525252620
  H         4.1051304812        0.1136509211        9.0173652153
  H         2.6684786142       -0.1171615417        9.2123952641
  O        16.0875297413       -3.9599685689        5.6824467759
  H        16.7780525208       -4.6527742046        5.9479285510
  H        15.3174184089       -4.0651601548        6.3557471897
  O         3.7713459085       -3.9491352591        8.9945230602
  H         3.5218365876       -4.4686255570        9.8558076504
  H         4.0422866506       -4.6722401427        8.3421832326
  O        -1.2802171713       -3.8320015257        8.3312555291
  H        -1.0817955641       -3.5588349284        7.3984145873
  H        -0.5580280275       -4.4956762248        8.4344914019
  O         6.2157030808        2.4288704441        8.8441304841
  H         5.3544502109        2.9238744309        8.8612382509
  H         6.2938281761        1.9198368132        9.6581173899
  O         8.0817001718        2.2183521719        5.0025655613
  H         7.3146292827        1.8011563510        5.5278449078
  H         8.8678120143        1.7733381462        5.3875656716
  O         6.4704137784       -6.8524851955       11.7776674464
  H         6.3514045171       -6.2319178703       12.5199510286
  H         6.7627683303       -7.7290524560       12.0793734803
  O         5.5026926380       -4.8784878884       13.6625636238
  H         6.3407363106       -4.7990068131       14.1317483815
  H         4.7929513235       -5.0037314346       14.3265719531
  O        -1.4124302995       -7.0091166441       14.7180525996
  H        -1.5654597468       -6.7373076705       13.7724609368
  H        -0.9326147942       -6.1886320607       15.1388340668
  O        11.8307888842        2.3235164132       12.5142939700
  H        11.1263539760        2.8804342414       12.1610228975
  H        11.7231750846        2.2877984648       13.5118137637
  O         5.7915626132       -2.3947615337       12.5539911450
  H         5.7493582207       -3.3586450512       12.8416529737
  H         6.7116711046       -1.9658526761       12.7683179822
  O        13.7335818994       -6.6400167049        5.3025972892
  H        13.1858294777       -7.4619016615        5.4223705578
  H        13.3692464406       -6.1391224709        4.4941074286
  O        -0.8991006843       -9.4052399701        2.8649946057
  H        -1.0132312346       -8.4593005980        2.5669601373
  H        -0.5286197522       -9.4465981399        3.7634080893
  O         3.6961007686       -7.5739437303        1.4024890785
  H         2.9057644944       -7.9990560438        1.0350113605
  H         4.0996457330       -6.9988629240        0.6740293196
  N         3.5156196380       -0.5466881542       13.1239868426
  H         3.6377788597        0.4177460370       12.7335534386
  H         4.4211555746       -1.0750163796       12.9998530463
  H         2.7170878920       -1.0567702166       12.6485376589
  H         3.2519801572       -0.6159869006       14.2291924351
