     194
 CELL 12.4294 12.4294 12.4294 90.0 90.0 90.0 i =    55220, time =    27610.000, E =     -1097.1560059753
  O         3.5928317990        0.9481232170       11.2990474022
  H         3.3525712684        0.6737498252       10.4096807745
  H         4.5563881311        0.9607015935       11.1644633113
  O         9.2367641405       -9.4545978227        9.0481819790
  H         8.3564217445       -9.0846483174        9.0109754311
  H         9.1271545518      -10.4444970904        8.8286540040
  O         6.3720873847      -11.1510772966       11.1798899125
  H         6.7920868283      -10.4073854429       11.7285319736
  H         7.1425091489      -11.7341095291       11.0166679755
  O         0.8797391145       -2.1622818730       11.6546115176
  H         0.7218654959       -3.1233399228       12.0635588136
  H         0.1699663568       -1.5706466711       12.0441139330
  O        -5.0702380387       -9.0679461973       12.5139175758
  H        -5.1373886389       -9.6364048944       13.3712246329
  H        -4.0484714702       -9.1111567647       12.3465285678
  O         7.9016641267       -3.6262038516       19.9204053677
  H         7.6723392400       -4.2062024162       19.1703590142
  H         8.8596630151       -3.5351360678       20.0365399264
  O         5.6174944787        0.5817078921        1.8431436838
  H         5.5642838915        1.5389033790        2.0647983037
  H         6.1205500906        0.5171235551        1.0253773977
  O        10.1981349516        3.6513660044       11.5401731123
  H         9.7489954751        3.3820743082       10.6257412942
  H        10.3985482401        4.6375857110       11.4693728602
  O         2.8643447553       -4.8653971103        2.7307045701
  H         2.5411832574       -5.7457989256        2.7046955160
  H         3.0177963872       -4.6392455655        3.6882452130
  O         6.6693852793       -1.1265940515        7.6485403508
  H         6.1165148418       -1.4683182275        8.3760311732
  H         7.2611465209       -1.9096059371        7.4986576277
  O         7.9177500648       -7.7814451190        3.5005062212
  H         8.5505121962       -7.1945889929        3.0730007873
  H         8.2911195015       -8.2897847552        4.2774376685
  O         3.5928932600        3.6192549711        8.3505177169
  H         3.4101429527        4.0658375973        7.4795589535
  H         3.0935356008        2.8066175817        8.1970921782
  O        -1.1710397750       -0.4887899446       12.3465147481
  H        -1.6752761858       -0.6590282142       13.2179932580
  H        -0.7709504582        0.3910881852       12.5805726185
  O         6.9042681986       -5.8489752537        9.2583604795
  H         7.6299508745       -5.1456185894        9.1438416176
  H         6.7386339572       -5.9810362759       10.2069569301
  O         4.8983859400       -2.0031184932        9.3156896986
  H         4.3601100719       -2.7678504397        8.9669824773
  H         5.1860625068       -2.2469021004       10.2781979665
  O        10.1126549307       -1.9078054850       10.1252998188
  H        10.5520636596       -2.5443612722        9.4436334605
  H        10.7776134400       -1.6511029914       10.7864792800
  O         8.5369266688       -4.6489880092       11.7489231814
  H         7.8421199663       -5.3623319180       11.8668411397
  H         8.2341187956       -3.9135242115       12.3124115207
  O         8.6088569239        1.7150760010       14.5952058686
  H         9.4116585577        2.3273119880       14.8521192093
  H         7.9984261845        1.7266948951       15.3937440793
  O         8.0522292523        5.0542941249        6.9874866941
  H         7.9275029527        4.1295329389        6.6051020763
  H         7.6589109433        5.1063641571        7.9061131197
  O         2.2449305874       -9.0984940831       12.4067107583
  H         2.7365034044       -9.8128233616       11.9745375136
  H         1.3761353472       -9.4848507761       12.7071902196
  O         9.3420173034       -0.8475039519        1.7614661273
  H         9.5746811556       -1.2577615236        2.5920874880
  H         9.0625300062        0.0599596153        2.0879518825
  O         3.3941751193        7.1232623482       11.4960401584
  H         4.2558371128        6.7930868221       11.8054868557
  H         3.0700818030        6.2864741111       10.9838323293
  O        13.0350655930       -0.6151564603       19.1829694851
  H        13.0911229631       -1.2313604820       19.9347066148
  H        12.8177017058       -1.2273651301       18.4285288826
  O         0.6407628641       -2.1055012128        4.1976522132
  H         1.3866401555       -1.6335542939        3.7775885830
  H         1.1201469681       -2.9204561114        4.5394471529
  O         2.8057527840        0.0957700363        3.8430520380
  H         3.6344914200       -0.3562670287        4.2336598878
  H         3.0030010388        1.0195363278        4.1052597924
  O        10.7235352020       -6.1738162659       11.2972560862
  H        11.0259089598       -6.0646344698       10.3625989359
  H        10.0299527737       -5.4755417676       11.3491967345
  O        14.3361347027       -7.3483036867       10.2413543814
  H        14.2900169742       -7.9821671211       11.0742758481
  H        14.8404450785       -7.9721074646        9.6733100553
  O        10.3428287299       -3.6580584330       17.2293874081
  H         9.4512636162       -4.0936156891       17.4320241936
  H        10.1065874971       -2.7404764880       17.0579168458
  O         0.7648195024       -4.5693934671        6.6669801710
  H         0.8121625631       -5.4237455821        6.1046128397
  H         0.9560881083       -4.8108537105        7.6037513084
  O         5.6235718882       -9.0987747872       15.2086679456
  H         6.4610849329       -8.5313426455       15.3473169636
  H         4.9034589434       -8.3846510707       14.9274166765
  O         1.1278491470       -2.0942697038        8.7750434041
  H         1.8777560081       -2.7081294620        8.6042458180
  H         1.0352626416       -1.9696561018        9.7338213726
  O         6.8661329508       -1.1938007257       16.0301612576
  H         6.4212231900       -0.6107107292       15.4699528058
  H         6.1431052810       -1.4187885720       16.6970165086
  O         5.1125274836       -5.3558659575        7.0431043742
  H         4.6782126439       -6.1339139061        6.5814184679
  H         5.5039631275       -5.7056918862        7.8640482129
  O         4.6630474004       -1.3672334049        5.4544838981
  H         4.1463297362       -2.1530401951        5.5435845795
  H         5.2124934051       -1.2990301026        6.2068615668
  O        19.1220409078        1.6545709824        6.6477771825
  H        18.9096362736        1.9897914251        7.5619968974
  H        19.2654919414        0.7116177103        6.6238944446
  O        11.9051012738        3.7051116930        4.9387136992
  H        11.3093114943        3.9954616687        5.7140592640
  H        12.4559093019        2.9982561895        5.3775768322
  O        12.3501043313       -4.8607578258       15.6548454512
  H        12.8208934377       -4.5516128629       14.8456247042
  H        11.8176084264       -4.1415044283       15.9574071931
  O        11.9860037420       -6.3723579394        8.9633755233
  H        11.6234803966       -7.0140792239        8.2792194199
  H        12.6415019123       -6.9402115358        9.4226535336
  O         7.1388020969       -5.1706809710       17.7449311475
  H         7.4438364240       -6.0914411460       17.8076126225
  H         6.3154322218       -5.1113867768       18.2747092612
  O        10.7294401693       -7.9836897705        7.2751520934
  H        10.3763165249       -8.8486778170        7.7050336880
  H         9.8744517716       -7.5145464332        7.0955674410
  O         0.7913702352       -4.6769461485        0.3643519504
  H         1.7347216807       -5.0731743613        0.2141789771
  H         0.2181548462       -5.3539871672       -0.0036484347
  O         9.6399566438       -0.8670607775       16.7665642202
  H         9.8055150260       -0.3355223623       17.6032736321
  H         8.6329129419       -0.9044582384       16.5803387357
  O         7.5615037786       -3.8043731666       15.0735913371
  H         7.5466253946       -4.3607534462       15.8750500045
  H         7.2960369541       -2.8630625549       15.3617758255
  O         3.7080615033        5.0318763068        5.9565637671
  H         2.8298058165        5.2489054583        5.5156424719
  H         4.1032001503        4.2126670466        5.5366219143
  O         7.8967530439       -1.3098934528       11.8377572183
  H         8.3706991374       -1.0870841103       12.6943153681
  H         8.5882790329       -1.6230847124       11.1857177162
  O        14.3039336709        2.1386402139        6.3563364044
  H        15.1840978719        2.0467419730        5.8603782848
  H        14.0255999824        1.1511258564        6.3061937714
  O        10.7345469263        0.9614014909        6.2823544605
  H        10.1070376803        0.7547093815        7.0233959815
  H        11.5592704196        0.5613856191        6.5917531706
  O         9.0283927430        0.2251424576        8.6010526232
  H         8.1131330811       -0.2888688494        8.4397950609
  H         9.4282127440       -0.4766086748        9.2258455289
  O         4.5112979458        2.3963552438       17.4646839482
  H         5.0635423078        2.7077157157       16.7191008346
  H         5.1794432286        2.1305745345       18.1254225143
  O         3.1909954839        0.3099676655        8.7504407704
  H         3.7186995975       -0.5054975957        8.8124123200
  H         2.3890367159       -0.1038645010        8.3861464933
  O        15.5273194520       -3.7314796215        5.6236978401
  H        16.3436637472       -4.1804642051        6.0495861511
  H        14.7203842795       -4.1272438398        6.0901727938
  O         3.4055120983       -4.1642734890        8.7870215127
  H         3.3643060560       -4.6632111996        9.6298580530
  H         4.0646130250       -4.6309533596        8.2283513799
  O        -1.7420589757       -3.6396578499        8.0943039329
  H        -1.0458676719       -3.5140306324        7.4145681465
  H        -1.5532680948       -4.5292338427        8.4155334153
  O         6.2742120564        2.8659064549        8.9230379194
  H         5.3586027152        3.3049460789        8.7658975495
  H         6.2264740768        2.1723774385        9.6914843225
  O         8.5370224692        2.8147646013        5.2081080017
  H         7.7876866142        2.2484870209        5.6797047042
  H         9.3802711308        2.3022900033        5.3984335217
  O         6.0493609362       -6.6462768994       11.7961005439
  H         6.1166294573       -6.1029987010       12.6498615174
  H         6.6488054964       -7.4501026326       11.9946426963
  O         5.3978257738       -4.8725418953       13.6645354836
  H         6.1453210415       -4.5895778208       14.3238564299
  H         4.5618995858       -4.9289703880       14.2141378601
  O        -2.2863568549       -6.4123436243       14.3692403787
  H        -2.0261583495       -6.0318834304       13.5150491440
  H        -1.7329842497       -5.8346242115       15.0280173902
  O        12.2115145634        2.0866975885       12.7974573790
  H        11.6064593868        2.6436593505       12.2470874027
  H        11.7699647702        2.3305109938       13.6868650608
  O         5.2381602123       -2.1371426022       12.1015774694
  H         5.2901577630       -3.0982767866       12.4046432210
  H         6.1935035550       -1.8796379733       12.0295130005
  O        13.7095033874       -6.6639378993        4.8011658065
  H        13.1504326700       -7.4621515493        4.9071250530
  H        13.2467246213       -5.9518119290        4.2227224849
  O        -1.8299475523       -9.0614984909        2.5578735711
  H        -1.9224327909       -8.1374512810        2.2525790872
  H        -1.2448528908       -9.0738734442        3.4026197735
  O         3.5401822362       -7.4718928791        1.5295671150
  H         3.1387459511       -8.0843453215        0.8116199841
  H         4.3308832069       -7.0318596794        1.1914328327
  N         3.0017712076       -1.0361708372       13.1863675466
  H         3.0896115778       -0.2256847489       12.4670888481
  H         3.9579224637       -1.4554541919       13.1535279889
  H         2.2331249441       -1.6631852753       12.9336210513
  H         2.7720852761       -0.5545528761       14.1265780132
