     194
 CELL 12.4294 12.4294 12.4294 90.0 90.0 90.0 i =    27220, time =    13610.000, E =     -1097.1418015010
  O       -10.3554974173        3.4727464074        6.3757004753
  H       -10.2358763537        2.4784444469        6.4060524251
  H        -9.9672878350        3.7828731544        5.5726440949
  O         0.3156501474       -8.9104343573        3.3607246746
  H         0.4715761954       -8.2531276677        4.0324079183
  H         0.5387876028       -9.7964541879        3.7315640161
  O        -4.9310344927       -7.1675931752        6.9169095758
  H        -5.0579069102       -6.1747793817        6.8286885572
  H        -4.0044654954       -7.3312323163        6.5314805315
  O       -12.9129306521        1.0438650827        6.4850387274
  H       -13.6837936933        1.2245014800        7.0113700931
  H       -12.1125111090        0.7733401145        6.9713847367
  O       -18.1828702152       -4.7482308623        6.6054841966
  H       -18.9676577602       -4.5725610379        7.1502996866
  H       -17.8794528723       -3.8698178922        6.2631151740
  O        -3.6109191240       -1.1406043676       13.3019915622
  H        -2.9643838498       -0.3929849867       13.4780302196
  H        -3.4318732455       -1.6263529965       12.4596685568
  O        -5.8894263003        3.9607656572       -3.0632176615
  H        -5.1120970053        4.0233165179       -2.3963793594
  H        -5.4109494641        4.2664632756       -3.8262862208
  O        -2.5687021804        4.9598666190        5.7864321753
  H        -1.7370886827        4.9461315100        6.3659168403
  H        -2.4999728213        5.8724139465        5.3700580288
  O       -11.9469750002       -3.1538767567       -1.5372673347
  H       -12.0972321831       -4.0745985346       -1.8501521933
  H       -11.7487306469       -3.2818960695       -0.5642064714
  O        -4.1464131612        2.4149046107        0.3943872828
  H        -4.7493780386        1.6092290595        0.4609664388
  H        -3.3094357757        2.0785732368        0.7631407987
  O        -3.4734790640       -3.5245085263       -1.6398816667
  H        -2.8399927797       -2.8829934883       -2.0170838530
  H        -2.9875627710       -3.9394445062       -0.8869435297
  O        -9.0483016053        4.4542066301        4.3179375208
  H        -9.2081466955        4.1454994578        3.4193006455
  H        -8.1454501079        4.2383351893        4.6069643765
  O       -12.9048583061        4.6315908999        7.1424432373
  H       -13.2354480137        4.0342173754        7.8529029802
  H       -12.0834149280        4.2931758222        6.7089243278
  O        -5.2721936960       -2.7535545122        2.5094541430
  H        -4.5429278082       -2.1234520074        2.2403996932
  H        -5.5702982353       -2.5291554409        3.4163516317
  O        -5.8002930616        0.5484164836        1.4277683080
  H        -5.2239293457       -0.1022812183        1.0509079492
  H        -5.4179442810        0.6563287100        2.3389247268
  O        -0.2291843798        0.6608981237        3.7882469318
  H         0.6612599461        0.1938055297        3.5649439850
  H        -0.2747208234        0.7211144007        4.7832151108
  O        -1.8725486388        1.0242645848        1.5376826213
  H        -1.6125685599        1.1241874019        2.4730034437
  H        -0.9681527770        1.0645897654        1.0389233299
  O        -2.6140275266        7.0814518170        8.8393049629
  H        -3.2008932578        6.2616602454        8.9021899121
  H        -3.0128597729        7.7861269589        9.4491245662
  O        -5.6471734111        6.8240297425        1.6420086737
  H        -5.2602559917        6.1718043213        2.2576971965
  H        -5.4568550595        7.7988128396        1.9167830458
  O       -10.4006974422       -7.3883511330        9.0181300587
  H        -9.4861544843       -7.2350340196        9.3092283185
  H       -10.2957322497       -7.9002225310        8.1634916161
  O        -1.8280346036        2.7766770642       -3.7323958817
  H        -1.3465101524        2.0877160354       -3.2292088839
  H        -2.4638521654        3.1876172253       -2.9676698931
  O        -7.7759164194        7.3985098065        3.9590468232
  H        -6.7826859850        7.5506567765        3.9818757626
  H        -7.8081792438        6.4000887196        4.1521096895
  O        -0.4499706072        0.6007893015        9.9452918645
  H        -0.8929837633       -0.3373381941        9.9341037797
  H         0.3658530790        0.7169813357        9.4093429935
  O        -9.7741350804       -2.6223471592       -3.1117750718
  H        -9.4361150560       -1.8567676711       -2.5740978108
  H       -10.3805432798       -2.8923436718       -2.3827407453
  O        -9.3364582819        3.2890536447       -0.0395875488
  H        -8.9872329201        2.5267214313        0.5222466269
  H        -8.7934293066        4.0937748825        0.1021086776
  O        -2.5577539783       -1.0905944480        4.1191496034
  H        -2.3618949321       -2.0265076370        3.8966663783
  H        -1.7618582681       -0.6006397883        3.8551012267
  O         0.1803185159       -6.2146574264        4.1247302232
  H         0.2506140947       -5.9160803797        5.0401290781
  H         1.0675954991       -6.1097908217        3.6824935138
  O        -4.2345661770        0.7414646272        7.9610699514
  H        -4.5310436399        0.4174601833        8.8643793588
  H        -3.4783973886        1.3821250691        8.0897657740
  O       -11.1401630573       -3.1187575548        1.2800996438
  H       -11.9389763201       -2.9908750783        1.8473986539
  H       -10.5765568797       -3.9169684706        1.5835830938
  O        -7.6248896892       -4.2296307030        8.9641167593
  H        -7.0745901071       -3.7246341241        9.5878066835
  H        -8.5447821506       -3.8270360262        8.8175710761
  O       -10.3757784645       -1.6006511520        4.8861691409
  H       -10.3477596561       -1.9420877666        3.9731454292
  H        -9.7623365008       -2.2655705746        5.3088844983
  O        -7.4327111968        1.7224175737        8.8060343878
  H        -6.8435974563        2.4145724386        9.1615000729
  H        -8.3777005782        2.0711599324        8.8851251437
  O        -7.7068377922       -2.5024613318        0.8108743076
  H        -8.2557201344       -3.2787993620        0.9875350556
  H        -6.8916363214       -2.5450265665        1.4113552903
  O        -8.4337005735        1.4131309052        1.6715257514
  H        -8.9395564900        0.6007403177        1.7553239343
  H        -7.4920806825        1.0645790762        1.6073868104
  O         3.5914644548       -0.7100604094       -1.1968021039
  H         3.1890076300       -0.0370543813       -0.6361610613
  H         3.7636188419       -1.4287372999       -0.4988826424
  O         2.5929205355        2.3623684916       -2.7424788096
  H         2.7947507240        2.3667354667       -1.7451639258
  H         2.5306833968        3.3537741892       -2.8986550233
  O        -1.5965066762       -1.8351324143        9.8027205928
  H        -1.1655012065       -1.8843038120        8.8647270145
  H        -0.8136805138       -2.1711101881       10.2374416331
  O        -1.2736213199       -3.4953469377        2.7866573994
  H        -1.8473406729       -4.1075742439        2.2068419212
  H        -0.8252483703       -4.1025611776        3.4075781385
  O        -6.3046343647       -2.9518192398       10.9011870709
  H        -5.3549108308       -3.2566335679       10.9736921562
  H        -6.6830335995       -2.8428476291       11.8072815741
  O        -1.3300330445       -7.0288257404       -0.6084130908
  H        -0.6502780144       -7.6078449984       -0.2549519296
  H        -0.7837538067       -6.6247818164       -1.3819207203
  O       -12.0940989666       -2.0972027359       -4.7117165548
  H       -11.3208981196       -2.2683303615       -4.1593835458
  H       -11.7454393920       -1.5994096763       -5.4915178948
  O        -3.4829132583        4.0830737499       10.8733943125
  H        -2.6985093897        4.5800390021       11.2690872712
  H        -3.6099307473        3.4069968256       11.5852400095
  O        -6.1679311515       -0.7196173365        9.4032911556
  H        -6.2956008630       -1.4117902805       10.1315599908
  H        -6.5829279576        0.1846694684        9.6256256167
  O        -8.0807566895        5.8459001106        0.0722151899
  H        -8.0815519277        5.9200067718       -0.9308540226
  H        -7.1598517181        5.9826172375        0.4229221399
  O        -2.6517667434        3.1149213298        3.9211172490
  H        -2.6097190998        3.6799630778        4.7549883848
  H        -1.7015549981        2.8011227672        3.8373315669
  O         0.3752354645        3.4760213052        0.6172838932
  H         1.3033217264        3.5817432490        0.3375526760
  H         0.4093890373        3.4621688658        1.5958953624
  O         0.5607188855        0.9990458535        0.0437215496
  H         0.4053722250        2.0266992806       -0.0472811339
  H         0.1804517966        0.7010186352       -0.8466159150
  O        -4.6377944021        4.4187493580        2.7403577318
  H        -4.7200593880        4.0217599178        1.8185918084
  H        -3.6788120876        4.1036190720        2.9524247814
  O        -7.9017207923        5.8110695422       10.0292278582
  H        -7.7319550933        6.6697536266        9.5253654230
  H        -7.1671798551        5.2019698250        9.7083631707
  O        -9.0579768320        0.9984902038        4.6465838934
  H        -9.1159620543        1.1132953928        3.6614138402
  H        -9.4625855299        0.1205480963        4.8185348717
  O         2.0208158897        0.6922407061       -4.7369494851
  H         2.6143617345       -0.1281148304       -4.7872078682
  H         2.3194124208        1.2452609084       -3.9500600054
  O        -9.5430371581       -5.1359116119        1.6459744086
  H        -8.9560922049       -5.2296967881        2.4526324902
  H        -9.0235862458       -5.5815527116        0.8945090963
  O       -10.6201922958       -0.3936641054        2.0937886707
  H       -10.5770373749       -1.3820968558        1.8034299824
  H       -11.2910291676       -0.0059701421        1.4203936038
  O        -6.2241349999        3.7332080999        5.1458803153
  H        -5.7571042396        4.2696081342        5.8498608413
  H        -5.6794704899        3.8433159042        4.3108746480
  O        -2.7789160393        7.5105727016        0.7946968958
  H        -2.3460390214        6.7464086609        0.4359444948
  H        -3.7137928379        7.3213179271        0.8416958780
  O        -5.4291875481       -2.4411055187        5.5569200183
  H        -6.1366304047       -1.9500084315        6.1130035605
  H        -4.6039649476       -2.0423450164        5.9574611680
  O        -7.9972170817       -1.0892137071        7.1783385920
  H        -7.3602090705       -1.1030978079        7.8816987969
  H        -8.3221242123       -1.9962330893        6.8991241303
  O       -15.7360739531       -1.4770819124        6.9080342612
  H       -15.3169572579       -1.1013711986        6.1268054532
  H       -16.1194264323       -0.6529260805        7.3421644074
  O         0.9614401273        7.7509570705        6.9447101665
  H         0.4755248869        6.9486924289        7.2219120491
  H         0.2998170072        8.4750175453        7.0147500451
  O        -4.5145498634        1.0053636874        3.8985064433
  H        -3.8888524151        0.2321336537        3.8866750661
  H        -3.9253933765        1.7911146704        4.0011101536
  O         0.0189405867       -5.8401649753       -2.6778353246
  H         0.6309826146       -6.4010609226       -3.1366804623
  H        -0.7359313010       -5.5147177534       -3.1809246068
  O       -14.7271923351       -4.6205195255       -6.3650040471
  H       -14.5193539476       -3.6851230041       -6.3383938935
  H       -15.0788860790       -4.8199181070       -5.4869578662
  O        -8.9235481319       -3.7492258566       -6.2052586108
  H        -9.8576531860       -3.9513303524       -5.9854058431
  H        -8.5668431813       -4.3302158766       -6.8562839022
  N        -6.6150944010        1.2546948958        6.1255071413
  H        -6.3589906172        2.2189098264        5.7458799230
  H        -5.8110773317        0.7003254841        5.9173944031
  H        -7.5132347572        0.8830212371        5.7348111223
  H        -6.8390055696        1.3018424392        7.1636113856
