     194
 CELL 12.4294 12.4294 12.4294 90.0 90.0 90.0 i =    50020, time =    25010.000, E =     -1097.1424084746
  O         0.9178857842        1.4232562689       10.4064180820
  H         0.4726632661        1.0567363915        9.5913091295
  H         1.8767310851        1.4743653397       10.2993350495
  O         7.2628252958       -9.5083740370        7.9090128242
  H         6.4286535269       -8.8958470301        7.8974619717
  H         6.8870373654      -10.3908577723        7.8804731693
  O         3.7931948534      -10.4108950035       10.1081200984
  H         4.2296138122       -9.5333661042       10.3689674863
  H         4.5972993683      -10.9804627760        9.7694511837
  O        -1.5531767885       -2.1266925240       12.1913857255
  H        -1.8890866345       -3.1423217647       12.2423493173
  H        -2.3438218388       -1.5348083550       12.3596134540
  O        -7.1070571332       -8.4598635063       11.4533591765
  H        -6.9779234502       -8.8866184292       12.3450237020
  H        -6.1668104083       -8.5150597362       11.0936859730
  O         6.0613001867       -3.8849909766       19.0769868207
  H         5.8624464036       -4.1031422768       18.1410606306
  H         7.0491269448       -3.6713853679       19.1852800513
  O         3.4979301008        1.7137867210        0.5710647993
  H         3.3441528955        2.6432532113        0.8570011790
  H         3.4056633250        1.7239862156       -0.3798083142
  O         8.0276733461        3.8888342484       10.4524071071
  H         7.8974289915        3.5162865276        9.5738008562
  H         8.4158526098        4.8830197451       10.3888449033
  O         0.9034876970       -4.1044270558        2.2743897127
  H         0.2079422496       -4.7620725479        2.0529709100
  H         0.8284053264       -4.1920929362        3.2812659212
  O         4.4870435011       -1.5194223009        7.6698027790
  H         3.6363568685       -1.7794225506        8.1635551856
  H         5.0104012995       -2.3300510382        7.4263873270
  O         5.5057508951       -6.5746950815        2.5699262079
  H         6.2974665849       -6.2268876269        1.9768032866
  H         5.9517671128       -7.0977497265        3.3124363028
  O         0.4915911417        3.0576017074        7.2995438181
  H         0.5721039023        3.8802621911        6.7436562565
  H        -0.0422801594        2.4257334143        6.7362500477
  O        -3.2118206925       -0.1512414357       13.1692963575
  H        -4.0807119540       -0.0512154650       13.6020221604
  H        -3.0201210527        0.8136517038       13.1172727107
  O         4.7572201024       -5.4269540644        8.1713573160
  H         5.4195146145       -4.8564493791        7.6911060413
  H         4.7237112024       -5.2046832709        9.1144514370
  O         2.1188069787       -1.8170515866        8.9368434528
  H         1.7246047212       -2.7674274127        8.9743859448
  H         2.4122889102       -1.7893860713        9.8758879049
  O         7.8493045497       -0.0135094000       10.4767643339
  H         8.4959360522       -0.6976679745       10.0192242161
  H         8.3409884659        0.3577726589       11.2432792280
  O         6.5160204037       -4.3073579413       11.6838635510
  H         5.6285436410       -4.6654893743       11.3843775291
  H         6.4608949631       -3.3503102823       11.9652151327
  O         6.2290665689        3.1467647632       14.0712881024
  H         7.2377806323        3.3877547009       14.0324335719
  H         5.8375645358        3.9884808200       14.4394843622
  O         5.0688000632        4.4214292565        7.4589327330
  H         4.2237932945        3.9199244265        7.5193688987
  H         4.9078177856        5.3839820278        7.7258435232
  O        -0.4274242215       -8.6711902593       11.6962038983
  H         0.0392683192       -9.5633840349       11.5988124710
  H        -1.3527146193       -8.9377828132       11.8101160135
  O         6.4208058377        0.3037452758        1.3416469984
  H         6.3189487912        0.0847569281        2.2948665593
  H         6.2637565677        1.2559891448        1.2232465018
  O         1.5544639879        6.0005342512       10.2723166812
  H         2.4676443064        5.8551873939       10.3928224456
  H         1.1041135583        5.2404930810        9.9434212031
  O         9.7194428167       -2.1841226927       15.4739028806
  H         9.1577756251       -2.0815515534       14.6787691033
  H        10.6236063633       -1.6317302120       15.2712628919
  O        -0.0084096435       -1.4292026977        2.6688494941
  H         0.3104417962       -1.1858528334        3.5801737763
  H         0.3374758878       -2.3229058600        2.6294784832
  O         0.9564734205        0.2014484873        4.7697924378
  H         1.7987681708        0.0174204389        5.2947703121
  H         1.1929732776        1.1282729779        4.4948284173
  O         8.8343155272       -5.9299397494       10.3859957647
  H         9.1023948963       -5.8459371957        9.4291541859
  H         8.2229530845       -5.1908264808       10.4787562851
  O        11.4519002760       -7.8581994465        9.0347088625
  H        11.5775412914       -8.1985709442        9.9823227051
  H        11.8206373463       -8.5165439251        8.4276123552
  O         7.3946723226       -2.7063427869       13.6989963957
  H         6.5160104905       -2.8942685101       14.0374275082
  H         7.4181792809       -1.7655018806       13.4085831563
  O        -1.0629829395       -3.9831063949        6.8847143208
  H        -1.3830200074       -4.9330206181        7.0155675967
  H        -0.6012009286       -3.8520823037        7.6595757901
  O         2.9815165769       -8.1261637312       13.8560084589
  H         3.6883704950       -7.5316096571       14.0819248367
  H         2.1620062045       -7.5716215552       13.6564005138
  O        -2.8952538637       -2.0485203451        9.5399976464
  H        -3.2271791791       -2.5911262589        8.7836332138
  H        -2.5278343560       -2.6412690045       10.2601228328
  O         3.4130430406       -0.3166141673       14.8780268072
  H         3.6048781757        0.4312498962       14.2749363986
  H         3.2015831916        0.1292678170       15.7412697849
  O         2.5878945402       -5.2282452906        6.4660860136
  H         2.1190156885       -6.1003433323        6.2378535887
  H         3.2628882258       -5.4360993868        7.1867591510
  O         3.2834695417       -0.9213414234        5.2375468450
  H         2.7846225384       -1.7624003357        5.0266465818
  H         3.5909755995       -1.0317553658        6.1839082456
  O        16.8406494932        2.0405676916        5.2569986818
  H        16.5622043052        1.9042333945        6.1810903326
  H        17.3183706349        1.3211910454        4.8941262596
  O        10.0571756872        3.5527220108        4.6496222744
  H         9.3131673637        3.9304209801        5.2871446513
  H        10.2419924019        2.6636670753        5.0663985413
  O        10.2009292320       -4.9435151338       15.0376257698
  H        10.5426960005       -4.9791182088       14.1269038362
  H        10.0344634208       -3.9661551670       15.1309862436
  O         9.8075344923       -5.9982902911        7.9106899772
  H         9.1820165527       -6.4563780439        7.2772526333
  H        10.4019227145       -6.6531443138        8.3159762922
  O         4.5370593192       -4.4653394669       16.7772301297
  H         4.8237121171       -5.3707920498       16.3831530443
  H         3.6962968015       -4.6725639163       17.2268022477
  O         8.3371462069       -7.8415784269        6.2865973679
  H         8.1319083714       -8.5877920055        6.8866732621
  H         7.5000942293       -7.8661489964        5.7054528123
  O        -1.6678646337       -4.8058608906       -0.3104217370
  H        -0.8270698442       -5.3299807790       -0.1444729915
  H        -2.2649467026       -5.4860012071       -0.7000397958
  O         6.0566845429       -0.0566424869       16.3170932561
  H         6.7592315309       -0.2709497030       16.9662775927
  H         5.2989868996       -0.6483196630       16.4404507164
  O         4.9048510547       -2.7941015584       14.5560708742
  H         4.5735541594       -3.1484683452       15.4567848360
  H         4.3635630248       -1.9564402546       14.4151491908
  O         1.4231875635        4.9488211832        5.7520626489
  H         0.7870342820        5.2891191037        5.0952265142
  H         1.9143584380        4.2913734591        5.2331307775
  O         5.5345799440       -1.4021732208       11.7918423795
  H         5.6713073591       -0.5557890833       12.4090237440
  H         5.9720547251       -1.1234071943       10.9525668382
  O        11.2503023146        1.0113974817        5.9920536235
  H        12.1271226297        0.7536398507        5.6002541396
  H        11.2226914103        0.7724566868        6.9082588930
  O         8.9403458335       -0.6763345109        5.2590777123
  H         9.7430226153       -0.1069823677        5.3068192397
  H         9.0495701037       -1.2138743508        4.4364693630
  O         5.6877205481        0.4443059162        9.0179676652
  H         5.3919208145       -0.3618067559        8.5501353755
  H         6.5679000009        0.2440504126        9.3871619629
  O         2.2833588020        2.7796825038       16.3627884536
  H         2.4983130616        3.3098575628       15.5452610205
  H         3.2126833218        2.5248791480       16.6943640912
  O        -0.1782268506       -0.5058562069        8.6210900859
  H         0.6929118154       -1.0076313242        8.6356692161
  H        -0.8690061089       -1.0392363537        9.1435185338
  O        13.5420065451       -3.3732626839        5.1668120757
  H        14.0442772251       -3.8778289223        5.8691486104
  H        12.6652315429       -3.6237110488        5.5410534499
  O         1.1383476375       -4.2283195619        8.5761014880
  H         1.2225252458       -4.8858781462        9.2589757619
  H         1.7439522151       -4.5568654139        7.9148322737
  O        -3.7654429520       -2.9106245235        6.9583033434
  H        -2.9014116405       -3.4260379375        6.8433217379
  H        -3.6873812950       -2.1011687708        6.4608538863
  O         2.9644359713        2.2021483273        7.5029414836
  H         1.9821911970        2.3261750753        7.4776556441
  H         3.1771621505        2.1791753939        8.4635812767
  O         6.3962709052        4.2433652349        4.5318781876
  H         5.6209719763        3.7783359216        4.9779478342
  H         6.7449416744        3.5766939260        3.9034741376
  O         4.1604986734       -5.9499856661       11.1566999492
  H         3.6995312187       -5.5559957861       11.9698526805
  H         4.7905738029       -6.7152175514       11.4084386021
  O         3.0916078621       -4.3041506517       13.0895760003
  H         3.8591996240       -3.8330617158       13.6214605233
  H         2.2539067702       -4.2513387480       13.5954485594
  O        -4.5295218383       -5.6883708738       13.7706947772
  H        -4.9986686477       -5.1100634162       13.1989722191
  H        -3.9583663992       -5.2025701935       14.3591577186
  O         9.5834425391        2.5076463873       12.2781931887
  H         9.0354497424        2.7716049247       11.4970412444
  H         9.3881826871        3.0947675827       13.0278217058
  O         2.8853405796       -2.0726119252       11.6283359665
  H         2.9048294381       -2.9066546989       12.1642124575
  H         3.8964226058       -1.7311187469       11.5675553732
  O        11.5673878647       -6.5924565398        4.0005160335
  H        11.1025393086       -7.3370542553        4.4475817403
  H        10.8101506470       -5.9274084867        3.9145504253
  O        -3.6350757627       -8.4462801888        2.0006768917
  H        -3.7329426432       -7.4943523281        1.7351653988
  H        -3.0427786273       -8.5276792509        2.8503682325
  O         0.5510129503       -6.4320282946        0.4915604080
  H         0.2098571620       -7.2591427425        0.1341258382
  H         1.0694015365       -6.1416069814       -0.2599925248
  N         0.9134231701       -0.7167285626       12.6021610605
  H         0.8418772968        0.1719547026       12.0662065549
  H         1.8294844982       -1.2406580531       12.3509872626
  H        -0.0021543345       -1.2871212789       12.5382243247
  H         0.9340789430       -0.4978150760       13.6044102927
