     194
 CELL 12.4294 12.4294 12.4294 90.0 90.0 90.0 i =    75620, time =    37810.000, E =     -1097.1143652495
  O        13.6166232829        0.4754732491       12.4066933225
  H        13.9909390735       -0.4199628917       12.3691070710
  H        14.2281399428        1.1275116955       12.0178981081
  O        18.2425806187      -10.2233387937        8.9889927588
  H        17.6330623956      -10.2543399675        9.7751200367
  H        18.2469003708      -11.0856875208        8.4768870960
  O        16.4563164855      -10.8546120683       11.4566550812
  H        16.9605052146      -10.6035449437       12.2609231829
  H        16.5614901503      -11.8053357259       11.2476515164
  O        10.4827234510       -2.8248850114       14.6084471316
  H        10.0147308343       -3.7502321933       14.7661147838
  H         9.9055109974       -2.0650189366       14.8404292028
  O         4.7235350653       -9.8707461497       13.8239492061
  H         3.8560806615      -10.0235539834       14.4662492007
  H         5.5659034673       -9.9452913834       14.3478786134
  O        21.2363499393       -6.2865183281       22.7731921145
  H        22.0805454256       -6.7484675768       22.5777169936
  H        21.3381139067       -5.3436925838       22.7841973170
  O        14.4384232964       -0.1719929334        3.1373590272
  H        14.4779874941        0.8107830022        3.0462328123
  H        15.3271013326       -0.5529315927        2.8135211137
  O        20.3925408537        2.4924092350       10.5368243498
  H        19.8667691847        1.7987296486       10.0375841974
  H        19.7839496359        3.2665747185       10.5531970895
  O        11.9006198858       -6.6565428968        3.0360668775
  H        11.8756710759       -7.4113739719        2.3267473115
  H        11.6801000429       -7.0882382357        3.9172228281
  O        16.1631424745       -2.8926487391        9.7795138294
  H        15.5706200682       -3.4657220766       10.3085175347
  H        16.5780208686       -3.4222931534        9.0185397396
  O        16.1260417396       -7.6225393422        4.3649498377
  H        16.8870295850       -7.0647974193        4.1038667425
  H        16.3364821811       -7.9447254257        5.2466993755
  O        12.0551000449        0.4401513893       10.0254041828
  H        11.6421469061       -0.4558973758        9.8586137223
  H        12.7973665187        0.4172269127       10.7237028814
  O         8.7831112391       -0.3891684511       14.0069826244
  H         8.0372961634       -0.2342881512       14.5950924353
  H         8.9829314849        0.5471008724       13.5787768176
  O        18.7122718380       -7.7108638831       10.5345251442
  H        19.4557326146       -7.1613063488       10.2608091317
  H        18.4104047101       -7.3270436412       11.4461508951
  O        14.1045612654       -2.1871231813       12.1791044773
  H        13.3538120607       -2.7749067021       12.3652104882
  H        14.8592248659       -2.5543136422       12.7127757870
  O        19.7881986970       -2.1692668060       12.7218690767
  H        20.2428797744       -2.8256616021       12.1411687317
  H        20.5138504418       -1.6779538237       13.1985070840
  O        18.2766355749       -4.4906980210       13.2358165339
  H        17.4526588266       -4.1332260378       13.5947280542
  H        18.8516201914       -3.7136149730       13.1008138197
  O        18.3384691651        2.1236177303       16.7626762933
  H        19.0566245716        2.0987025999       17.4585167751
  H        17.5483572905        2.2084014785       17.3514470907
  O        16.5133102963        5.2066440538        9.1117197862
  H        15.9870803079        4.4321349588        9.2727682816
  H        17.3799555598        5.0481867046        9.6423000556
  O        11.7592090006      -11.6948049512       14.4256094067
  H        12.3597465819      -11.9824086500       13.7170833596
  H        10.9203936153      -11.5831862659       13.8986893770
  O        18.7507108818       -0.2764683691        3.3081109673
  H        19.3482032058       -0.7800237518        3.9215154626
  H        18.4467655398        0.5316649166        3.8740392315
  O        12.6008290125        4.2841869526       11.1013716104
  H        13.4216328385        3.9823407820       10.6354403256
  H        11.8565369684        3.8141719564       10.6883954908
  O        21.3334706893       -1.4472406090       21.0087917088
  H        22.3215493589       -1.4682692317       21.3352845139
  H        21.1984383228       -2.1562139191       20.2844758671
  O         9.1643578362       -3.9787575280        6.8787354508
  H         9.4672167242       -3.6300684322        6.0141727406
  H        10.0717225132       -4.1339801769        7.2810180981
  O        11.6754288965       -1.9990800278        6.0477137801
  H        12.3874612210       -1.8284238563        6.7344134397
  H        11.5498282313       -1.0728918205        5.6678999307
  O        20.3036638929       -6.4713925007       13.2121081506
  H        20.7592327792       -6.4379414505       12.3452525204
  H        19.5317008707       -5.8130135015       13.3063585361
  O        23.0868257062       -9.5070540723        9.5859193639
  H        22.0702456602       -9.6468412120        9.6853094209
  H        23.5899240408      -10.3445277163        9.6627596358
  O        18.9412723198       -4.5149209534       20.1992718981
  H        19.7983410726       -4.3912670978       19.6884950137
  H        18.6101413499       -5.3958781449       19.8527676180
  O        11.5371423178       -5.0256400108        8.0197513004
  H        11.0873845031       -5.8571728639        7.8870426021
  H        11.9645428317       -5.0604008538        8.8884662295
  O        14.8077876191       -9.6951891210       15.3730599585
  H        15.0825140589       -8.8267853484       15.7429940558
  H        13.9633144393       -9.4622502439       14.8941271106
  O        11.4756803740       -3.4528271586       11.9646008585
  H        11.6032932102       -4.4170136077       11.8206796417
  H        10.8919648771       -3.2402635101       12.7197646068
  O        15.4334028501       -0.0113631820       18.1482886354
  H        14.9605445224        0.0236265312       17.2669623629
  H        14.7772325376       -0.0917974445       18.8726226590
  O        15.2535447628       -5.0632013135       11.1327739205
  H        15.7294464512       -5.7721126014       10.6857707270
  H        15.4442744704       -5.2740872568       12.0745394009
  O        13.5010591791       -2.5039982941        8.3795501500
  H        13.6657009490       -3.1116238758        7.6779832220
  H        14.2652148604       -2.4666237581        8.9147080793
  O        26.2999555987        0.8189074759        7.9108454390
  H        25.7546121251        1.3098832910        7.2791353218
  H        25.7567006625        0.4124458048        8.6112686399
  O        21.2712322296        3.0564753332        4.6845578583
  H        20.9841931520        3.7990606830        5.2033364333
  H        21.3501776455        2.4520373829        5.4337178863
  O        20.9592087270       -6.5111469897       17.4267647918
  H        21.3766738180       -6.1457680837       16.6030814608
  H        21.1871585078       -5.8285126387       18.1015833543
  O        22.4776559233       -7.5280295446        7.5945807437
  H        21.4767713312       -7.7006714826        7.3659149578
  H        22.6666063003       -8.1947159801        8.2503818155
  O        17.5579129589       -6.5843364431       19.1543689130
  H        17.0096678911       -6.7818610089       19.9287124146
  H        17.1128616643       -5.7508473548       18.7178895794
  O        19.8219718916       -8.4633480498        7.1216718110
  H        19.5443599877       -8.8352263634        8.0374247663
  H        19.1576156572       -7.8330922183        6.8261653838
  O         9.7381723666       -5.3765255802        2.5626655458
  H        10.6855749472       -5.7907251383        2.6707907183
  H         9.2050215483       -5.9265705792        1.9417683901
  O        17.7362739926       -1.7785839230       18.1850954912
  H        18.2212408752       -1.7535894772       19.0647716065
  H        16.9440976129       -1.1479464925       18.3484822842
  O        16.5724070374       -4.1652971243       17.3621460604
  H        15.7994175237       -4.0699470486       17.9908184937
  H        17.1558564813       -3.3468850242       17.6432049715
  O        13.0441355209        2.0781850660        5.7647801752
  H        13.8412649521        2.3857602574        5.3816325414
  H        12.3438666997        2.8352174154        5.6609359356
  O        16.6921132728       -1.4585614658       14.4194301927
  H        17.4957307950       -1.2093344882       15.0303989355
  H        17.0499178237       -1.4613435907       13.5095161181
  O        21.3560789060        0.4718477620        5.9486612272
  H        22.2531525576        0.4882209681        5.5659334117
  H        21.4223550716       -0.0365910234        6.7518231152
  O        18.6121141704       -0.5487697266        8.7861351213
  H        18.2291582473       -1.0191419302        9.5735653389
  H        19.5441486817       -0.8932967277        8.8012567625
  O        17.4319361160       -1.1676379411       11.6416851347
  H        17.2477891377       -1.8980937328       11.0416500911
  H        18.3485130273       -1.3464507132       11.9933905806
  O        11.5384149721        0.2629773406       17.0334342209
  H        11.5379473795        0.0915376418       16.0522614313
  H        12.1450681212        1.0160930460       17.2882976813
  O        11.2418001088       -1.9199681519        9.6566457578
  H        12.0184704235       -2.2464236492        9.0520930001
  H        11.2082085409       -2.4730510240       10.4503930126
  O        26.0097239714       -4.1866752250        6.2527280268
  H        26.3353362801       -4.7153686646        5.4573909947
  H        25.3517366484       -4.7374915709        6.7146635689
  O        12.4446809493       -5.4704212284       10.5402354698
  H        12.4582513148       -6.4265640051       10.7460586636
  H        13.4102074877       -5.2342728351       10.5453066326
  O         7.8854930826       -3.5385600500       10.2723514378
  H         7.2035511553       -4.0741733332        9.7770875003
  H         8.3183075266       -2.8431286453        9.6642466058
  O        14.8560238817        2.9019613528        9.6786991601
  H        14.5011720260        2.2223219753        8.9894033765
  H        15.4290154971        2.4419492557       10.2918909558
  O        16.4862988311        2.5573788304        6.4236754362
  H        16.1482214862        1.6784337638        6.5835235705
  H        16.8609929156        2.8576294849        7.2993411983
  O        17.0597910342       -6.9772334262       13.1281674755
  H        17.4559675903       -6.4299322380       13.8476313842
  H        16.7866296525       -7.8580641513       13.5168838323
  O        14.3461293081       -5.4937439359       16.2418317701
  H        14.9710458480       -6.1758795788       16.5661448127
  H        13.5352447802       -6.0231882219       15.8863590863
  O         5.9378200635       -5.9532587097       16.0973227767
  H         5.7306456812       -5.0496083468       16.4611920423
  H         6.7653193299       -6.1989751282       16.5364348383
  O        22.0067520041        2.1653894185       13.1900991344
  H        21.5457962651        2.1980071688       12.3006905692
  H        21.3343265704        2.8176356342       13.7191491385
  O        15.4072184618       -3.8841880328       14.0900172330
  H        15.0328831063       -4.4744491450       14.8329891773
  H        15.9389517092       -3.0484326392       14.5005886307
  O        23.7757755474       -8.4512785622        5.0603173837
  H        22.9412496372       -8.8493681017        4.6557295847
  H        23.3695428722       -7.9589700759        5.8782321739
  O         7.6202045614       -8.8692022939        2.1508594485
  H         7.7068986735       -7.9648079293        1.8406192896
  H         7.8027602330       -8.9844783119        3.1292367048
  O        12.3519603078       -8.5969550795        1.4004160321
  H        11.8039265544       -9.3931703867        1.5451465394
  H        12.5065304662       -8.5607366655        0.4295201858
  N        12.7691985327       -2.4855688698       15.8962490757
  H        13.0233772393       -1.4926640720       15.8726046533
  H        13.5678592349       -3.0737275586       15.7890866471
  H        11.8583839696       -2.7205403467       15.3348122524
  H        12.4199701720       -2.5829604373       16.9606109192
