     194
 CELL 12.4294 12.4294 12.4294 90.0 90.0 90.0 i =    91220, time =    45610.000, E =     -1097.0931209500
  O        18.4743271060       -0.8084237036       13.8038568577
  H        18.0037446486       -1.6991159216       13.8584488634
  H        19.4299113760       -1.0420526991       13.8066676988
  O        23.9968086774      -10.6456043212        9.5108307863
  H        23.6659691854      -10.2455484063       10.3228537219
  H        24.4921253021      -11.4807497860        9.8238286462
  O        21.1189589885      -12.6583110935       14.3141616504
  H        21.1956599779      -12.0855500897       15.0792487159
  H        21.7700073687      -13.4314606277       14.3767897035
  O        16.7324100780       -3.3661424345       14.1576735936
  H        16.8391947451       -3.8332917938       15.0489841604
  H        15.8135293226       -3.1812817361       14.1057039560
  O        10.6251464004       -9.3566515568       15.6791299283
  H        11.3279973279       -9.5124471028       16.3298250441
  H        10.8932753578       -9.7344316700       14.8033657080
  O        29.4947566793       -7.4488334023       24.7883501534
  H        29.3391014087       -6.4766333417       24.6981997577
  H        28.7579843938       -7.8861398077       24.2760628271
  O        20.5370389569        2.0262744726        4.0729047414
  H        19.9706501805        2.2449809309        3.3149996306
  H        21.3916470438        2.5472307800        3.9690752863
  O        24.4066960182        0.7752704062       13.9810231439
  H        25.0046190531        0.2085558984       14.5547566322
  H        23.5480765875        0.3087157333       14.0302201815
  O        17.8040576839       -7.2059776348        4.3437448727
  H        17.2730505068       -7.6933728022        3.6695565733
  H        17.4308215540       -7.3331594605        5.2499343762
  O        22.0562980789       -4.3391741750       11.9546305896
  H        22.6080078271       -5.2187879902       11.7835547305
  H        22.8225665768       -3.7543051733       11.8691172900
  O        22.4349712307       -8.0044238269        6.2585475307
  H        23.1002497674       -7.7050959476        5.5742059982
  H        22.6155903914       -8.9896287940        6.3323119077
  O        17.6076428219       -1.1017796319        9.1794702333
  H        17.7055262736       -0.5743899914       10.0816197380
  H        17.8580853850       -1.9880668729        9.6196612457
  O        14.2545819810       -0.3638674430       15.3537823153
  H        14.1144309754       -0.8423706950       16.2373352707
  H        14.9180214346        0.3418233770       15.5534814122
  O        24.5226302548       -9.0723837140       12.5102429286
  H        25.3537601328       -8.8955016024       12.0261269059
  H        24.6435475602      -10.0443759992       12.7538745073
  O        20.0493171051       -3.5465769390       13.3489283648
  H        20.8448391518       -3.9318489894       12.8936354438
  H        19.4182900376       -3.3522519928       12.5720760566
  O        26.8082449535       -2.2291769158       13.4748160034
  H        27.2276211161       -2.0217569080       12.5916369031
  H        26.8422657983       -1.4527785354       14.0642925092
  O        25.3002763165       -4.3616768697       14.3980975352
  H        25.8355347678       -3.6977216190       13.8619414683
  H        25.7575121281       -4.3180308571       15.2290705661
  O        24.9673166481        2.1706686747       17.4758074341
  H        24.3550408247        1.9699384325       18.2655123384
  H        25.8263874768        2.0442410544       17.9002911175
  O        22.6675695752        6.1065345705        8.3701763230
  H        22.5233072758        5.2887547060        7.8553160910
  H        22.6211813534        5.8206839908        9.3277297903
  O        16.3967141576      -11.1275356417       15.2350636665
  H        17.0957244334      -11.5561351013       14.6455904303
  H        16.4290771994      -10.1499590455       15.2085383002
  O        26.5459434295       -1.9315587640        5.4696845532
  H        25.6413630738       -1.8529551547        5.8587357553
  H        27.1909211242       -1.4972401266        6.1030476470
  O        21.6592234159        2.9059072286       12.7721887821
  H        22.4123651198        3.5866526345       12.7232103446
  H        21.9675878547        2.0254079202       12.4134901906
  O        27.4818196238       -1.6337034356       22.5496883420
  H        28.3913384658       -1.3578506776       22.0566877965
  H        27.2928078006       -2.4659957302       22.0717853070
  O        18.6319832534       -2.9455232278        5.6281189579
  H        18.1606435790       -2.1078857685        5.5645831091
  H        17.8793740113       -3.5780270562        5.5034934947
  O        20.9367437339       -2.6517166038        6.9438942892
  H        20.9862075831       -2.7261365451        7.9415649655
  H        19.9580609536       -2.7510211435        6.8096553581
  O        25.4015147443       -7.2246204333       14.7688554284
  H        25.4319952789       -6.3072165219       14.3457749944
  H        25.1401858534       -7.8974683627       14.0857861403
  O        30.0812285916      -11.9658211087       11.2958980353
  H        30.6802036118      -11.2125617609       11.0357237553
  H        30.3140679916      -12.3854122176       12.1686987622
  O        27.0119872938       -4.4925933522       21.3133882534
  H        27.8438669207       -4.7685034200       21.0584285214
  H        26.4401342243       -4.7258771534       20.5008842369
  O        17.0542651418       -5.9351128177        9.0445790055
  H        17.3157534453       -5.8096821690        9.9417694895
  H        17.8291125201       -5.7724710473        8.4248955449
  O        19.4602164811       -8.8902744432       14.4272847109
  H        20.2266031353       -9.0192895696       13.8631254205
  H        19.6570960014       -7.9839310413       14.7500185324
  O        16.4186529508       -4.8425608876       12.0257555333
  H        15.4609022360       -4.7450996880       11.7902192600
  H        16.5741800923       -4.3272579564       12.8916399888
  O        23.2666513881       -2.3542731237       21.2944733453
  H        22.6983206552       -3.1990048246       21.2813629181
  H        22.6018451032       -1.6577813776       21.5183499510
  O        23.5812030553       -6.2645405191       11.1671971596
  H        24.4817352664       -5.9144825674       10.9723939783
  H        23.6690211016       -7.1884422788       11.4073198320
  O        20.6079841934       -4.1174550987        9.5909186187
  H        20.7047716778       -5.0205190610        9.2470328158
  H        21.0936441012       -4.1139416802       10.4099102040
  O        33.5970867547       -0.6370636620        9.0712952596
  H        33.4368740620       -0.2335249099        8.1927495995
  H        32.7648744394       -0.9767036176        9.3848979429
  O        27.7074587620        2.5459659729        6.8686554775
  H        27.0718673054        2.7944940754        7.6148931051
  H        28.0183746196        1.5941617445        6.9836249106
  O        26.5874788376       -4.5178990636       16.8649107950
  H        26.1988025177       -5.1481478205       17.4332712665
  H        26.5823411655       -3.6202584788       17.3013978777
  O        27.0447294783       -8.7398042195       11.1817325032
  H        26.7556680175       -8.5921819656       10.1945750155
  H        27.0867214109       -9.7318092407       11.4440551814
  O        25.1231928521       -5.9579981513       19.5533789835
  H        24.3586196151       -5.9104969126       20.1309193628
  H        24.7190952190       -6.1693080136       18.6772746967
  O        25.7904097033       -8.5424584586        8.6669254234
  H        24.9032360324       -9.0804260820        8.7726102696
  H        25.6021504483       -7.7921872338        8.1201967630
  O        16.8339254691       -4.5374334958        4.3156646634
  H        17.2114084131       -5.4726909534        4.3841247725
  H        15.8419144793       -4.6654827692        4.3472553422
  O        23.9963564750       -2.3660526705       24.4582153050
  H        24.2724955670       -1.8076766161       25.1713983669
  H        23.9352312816       -1.7662966091       23.6550470902
  O        23.9921192433       -1.7564504949       18.8444390188
  H        23.6810293530       -1.8648751280       19.7815210889
  H        23.4072670234       -1.0628393011       18.4294702545
  O        18.9382179060        2.2060673628        6.6306203960
  H        19.6411149511        2.6040963337        6.0039040380
  H        18.3787439164        2.9877592536        6.8903357009
  O        21.5761131833       -0.1299711991       18.4353052190
  H        21.1131112666        0.4973868770       17.8268512158
  H        20.9815605998       -0.8893648216       18.6039187267
  O        28.2895891471       -0.3060399247        6.9555767942
  H        29.0395770119       -0.3644560598        6.3102437076
  H        28.8135196693       -0.6122305397        7.7217567555
  O        25.3468642746       -0.2211630623       10.8474682640
  H        25.7964522522        0.3938852788       11.5225101630
  H        26.1483987645       -0.6048867101       10.4095708347
  O        23.2210391846       -2.1433030112       14.6722517507
  H        22.8054260815       -2.8332873954       14.1124099011
  H        24.0350048139       -2.6824836304       14.8361520844
  O        18.1027097751       -0.1091592960       17.7277806328
  H        17.8311287598        0.1386487690       16.8422723242
  H        18.2984126349        0.7513752397       18.2540405594
  O        18.3449565478       -3.3187387743       10.7818041978
  H        19.0111479358       -3.9102044945       10.3230413289
  H        17.4463978708       -3.8704025371       11.0047334540
  O        32.3147279155       -6.1903708918        8.1596139056
  H        32.7998482814       -6.0005712760        7.3006395338
  H        32.5468455375       -7.2084988807        8.2703688944
  O        20.5838933774       -8.8404906136        8.7839987120
  H        20.2308875806       -9.3058219662        7.9860241259
  H        20.0079228160       -9.0368688898        9.5523599625
  O        13.4210597883       -4.5716877374       11.3105517227
  H        13.7524806642       -4.5246002513       10.3947896877
  H        13.0802587196       -3.7094383639       11.6006045290
  O        22.5853432557        0.4925983138       11.4186784693
  H        22.0844721269        0.1693070596       10.5954765271
  H        22.2530739692       -0.1285085674       12.0687738246
  O        23.1041836601        1.7921855825        6.9607249868
  H        22.6665240698        0.9194670556        6.8670793161
  H        23.3606335231        1.6970427172        7.8804569521
  O        21.8739168817       -7.0016826433       14.2107434950
  H        22.4535097603       -6.2241537336       14.2583286379
  H        22.4444539479       -7.5784157119       14.7921236978
  O        20.4078670510       -6.6687969270       17.0857218120
  H        20.9821626170       -7.2888532995       17.5502901588
  H        19.4548521164       -7.0435472447       16.9793652470
  O        11.6542281574       -6.7471130204       17.0138046693
  H        11.1619230671       -5.8771985862       16.6804268527
  H        12.1452185869       -6.9766517288       16.1969244170
  O        27.5797123183        1.3335041609       12.4025218406
  H        27.8394404569        1.2918286178       13.3858981430
  H        28.2571268052        0.8987968922       11.8499061683
  O        23.0081729804       -4.1398769616       17.6322562263
  H        22.2202622937       -4.3194130987       18.1664917011
  H        23.3561824780       -3.2858374258       17.9504776345
  O        29.5970658892       -8.0475048553        7.0448815689
  H        28.8463979788       -8.6228954766        6.9354670531
  H        29.5738142345       -7.6185390122        7.9411283154
  O        16.3451154550       -8.2313575340        2.4460946904
  H        16.8378596702       -7.8769303751        1.6549161573
  H        15.3984309129       -7.9477314244        2.3789324074
  O        19.3940217655       -9.4067851235       -1.2773679937
  H        20.2165836031       -9.4480758713       -0.6811339694
  H        18.8049910979       -8.7807520557       -0.7877075808
  N        20.3277858152       -3.9039841784       16.0748872836
  H        19.8451749809       -3.3807133507       16.7880036592
  H        19.9340866989       -3.5766409589       15.1297713751
  H        20.1666280714       -4.9560717466       16.2448927182
  H        21.3666178718       -3.7852238093       16.1638338350
