     194
 CELL 12.4294 12.4294 12.4294 90.0 90.0 90.0 i =    62020, time =    31010.000, E =     -1097.1538687249
  O         7.1749491126        0.3863836834       11.0330195532
  H         7.5433026680       -0.2576447882       10.4494745668
  H         7.8915498143        1.0600813332       11.2887528700
  O        12.3208565504       -8.8599797417        9.6103644850
  H        11.5502815768       -8.2438196194        9.6941553354
  H        11.9494845534       -9.6802512971        9.2083957866
  O         9.5019626766      -10.3590774699       11.3415062966
  H        10.0730747706       -9.9310441130       12.0965063057
  H        10.1708671840      -10.7845964944       10.7646893202
  O         4.1154030858       -2.5257537352       12.2755619431
  H         4.0797867361       -3.4085144303       12.7980235600
  H         3.4168232076       -1.9072725083       12.5882475230
  O        -1.0002991121       -9.4944157560       13.3669215902
  H        -0.7762802513       -9.9531527979       14.1960969586
  H        -0.1787092234       -9.1531968019       12.9565153089
  O        12.8318528974       -5.4744154833       22.5937727807
  H        13.2806326895       -5.8954599313       21.8123068330
  H        12.9734780633       -4.4960428002       22.5381530640
  O         9.4143981650        0.7046434672        1.8350510247
  H         9.0133262087        1.5440646733        2.1351652467
  H        10.1941095293        0.9739139031        1.2564565907
  O        13.6943137848        3.6804099301       12.0144248286
  H        13.3640237208        3.7069165651       11.0908997254
  H        14.0801505193        4.6044333642       12.0750875922
  O         6.1287106239       -6.5939824521        2.1717120776
  H         6.4744122089       -7.3375397355        1.5613253084
  H         5.6987807900       -7.0457573824        2.9077740854
  O        10.0611587716       -0.9283250626        8.3061597471
  H         9.5123445752       -1.3934773242        9.0543990549
  H        10.6827956050       -1.5450836596        7.8698052969
  O        10.6628396772       -8.4911292589        4.3353072717
  H        11.4900250229       -8.0176901294        3.9207500823
  H        11.0213929019       -8.8587364213        5.1538206751
  O         5.8760648721        2.4113409632        8.8072872184
  H         5.7018224498        2.1681581619        7.9102759243
  H         6.1267649959        1.5728971140        9.2699367716
  O         2.3146616363       -0.4525689575       13.1243910715
  H         1.8291081703       -0.5441207227       13.9559284122
  H         2.5179834491        0.4988544616       13.2294803525
  O        10.2212359080       -6.8903772107       10.0518567942
  H        10.9464015037       -6.2467905540        9.8843539129
  H        10.0742299299       -7.0018280187       11.0453067735
  O         8.6717242687       -2.4383978516       10.0913635764
  H         7.8215127198       -2.9522020425        9.7555292072
  H         8.9899862841       -2.8505848049       10.9357206223
  O        12.6222128393       -0.5432011277       11.0190865812
  H        13.0844135013       -1.1164437699       10.3679288465
  H        13.3042766326       -0.4156722989       11.7381379395
  O        12.4802992453       -5.0320733127       13.4726673262
  H        11.8319007106       -5.6016865202       12.9858716245
  H        12.2955038359       -4.0613577570       13.1196091974
  O        11.9917247712        1.4794019214       15.6173858923
  H        12.6793844606        2.0479730648       15.9407921695
  H        11.1562609587        1.8179189205       16.1090539045
  O         9.6098285810        5.5508284624        6.8609158377
  H         8.7489484522        5.5349325923        6.3304539162
  H         9.4490167724        4.7078294439        7.4591741615
  O         5.2339500882       -9.9472268784       12.0216879938
  H         5.5031964149      -10.7504447382       11.4796358068
  H         4.7619760743      -10.0886840457       12.8580001227
  O        12.9194894554       -1.1658940505        2.5704469133
  H        13.0516139853       -1.6027856240        3.4664313721
  H        12.5860875575       -0.2183613098        2.7676934008
  O         7.6461318703        6.5820692148       10.5570933577
  H         8.5147958918        6.1884285813       10.3760306259
  H         7.1156647418        5.7751365761       10.7345446402
  O        16.0616874896       -0.3762084085       19.3539445218
  H        16.7069916693       -0.7665723197       19.9787426914
  H        15.8630523520       -1.0529926599       18.6910665764
  O         3.4032557264       -2.4899328434        4.9209828828
  H         4.0322118119       -1.9666666419        4.3623717202
  H         3.9114153829       -3.1172453497        5.4997252714
  O         6.4155982439       -0.9975607816        3.5189836031
  H         6.7474996992       -1.8005589876        4.0362226290
  H         6.7552562119       -0.2424829163        4.0692508334
  O        14.7980261996       -6.2147772907       12.0959436470
  H        14.9420281940       -6.1384851822       11.0593214698
  H        14.0991707778       -5.6152740477       12.4112379875
  O        17.6516520367       -7.6327559932       10.4985480620
  H        17.2130541577       -7.9787255648       11.3202081899
  H        17.8468313088       -8.4395312262        9.9955117407
  O        12.0416412288       -3.2934812733       19.6373440154
  H        12.2365491403       -2.6544229262       18.9218932600
  H        12.2647050318       -4.1388781066       19.1934899486
  O         5.0036834293       -4.2725396224        6.5901975890
  H         5.2710503487       -5.2002068951        6.4711419574
  H         5.3365316634       -3.9518324499        7.4830161282
  O         8.3397093400       -9.4750573043       15.2425253221
  H         9.1176245858       -8.9324726464       15.5507983816
  H         7.8018219458       -8.9036966732       14.6012199203
  O         3.8649151003       -2.9202270117        9.5086154730
  H         3.9655201872       -3.9364010249        9.4120055897
  H         3.9503365063       -2.8055352733       10.4716238471
  O         9.9135374331       -0.9736516994       16.6507717768
  H         9.7640633843       -0.4278491436       15.8527939321
  H         9.1888998908       -0.8279630162       17.2870435719
  O         9.0922686048       -4.3064935953        7.2722680079
  H         9.2279829416       -5.3427448423        7.4266210662
  H         9.8762823642       -3.7744045499        7.5283609239
  O         7.9999310836       -1.2222572032        6.2775388493
  H         7.7120895672       -2.1916928626        6.0420832022
  H         8.5586739757       -1.4054566582        7.1340232291
  O        21.8699732830        1.3577246821        6.7957804892
  H        21.5258042615        1.9206985238        7.5195199256
  H        22.0491880472        0.4936449953        7.2918043125
  O        15.6663087566        3.6123039704        5.7149451918
  H        15.3539656450        3.9362422877        6.6323684783
  H        16.4046607341        3.0331260437        5.9068652628
  O        15.2505152472       -4.8919172663       15.8082748941
  H        15.6652259865       -4.7878993327       14.9177944807
  H        15.2671257744       -4.0271181508       16.3244253869
  O        15.8822723197       -5.9060693639        9.6632284005
  H        15.5604239902       -6.5528391069        9.0017139099
  H        16.7913721272       -6.3183191105        9.9380935155
  O        12.0732870682       -5.9291776946       18.3638216845
  H        11.2755783670       -6.5008519720       18.6392322922
  H        12.2239813086       -6.0951256012       17.3820743528
  O        13.9642676677       -7.3403699211        7.6033729727
  H        13.3968696429       -7.9171191144        8.1236749031
  H        13.4578051568       -6.8023177385        6.9262868773
  O         4.2991156409       -4.9091966852        1.1817311966
  H         5.0111054252       -5.4552032768        1.6874788331
  H         3.9291352132       -5.6498290122        0.6710539785
  O        12.3232598250       -1.3202871890       17.8462494260
  H        12.8424382301       -0.5916796798       18.2853159413
  H        11.5429268268       -1.0077006253       17.3726990143
  O         9.7589755318       -3.9522500217       16.4134575088
  H         9.9732974525       -4.2608560162       17.3453952757
  H         9.8940854327       -2.9545437213       16.4414125879
  O         7.5377368913        5.7665059820        5.2254088348
  H         6.5971925977        5.6983233417        5.0394385351
  H         7.9159205159        5.1274389892        4.5226277599
  O        12.0305466869       -2.4962664966       12.8611560722
  H        12.2095011096       -2.0760983233       13.6945447224
  H        12.2620939365       -1.9030496366       12.0961159908
  O        17.5825062872        1.7572310590        6.3895420743
  H        18.2728534147        1.5998868635        5.6671164976
  H        16.9209268345        0.9780340236        6.3566636273
  O        13.6094932163        0.6434677420        7.0578846500
  H        13.1610746377        1.0264042320        7.8055694320
  H        14.4860835663        0.3888825647        7.2672917669
  O        11.6246339748        1.0687645668        9.2742743888
  H        11.1106583669        0.3301884175        8.9011925793
  H        12.2116432065        0.7092779955        9.9702399348
  O         7.2526144506        1.3073703552       17.2759795740
  H         7.4778681119        1.9716590522       16.5393544873
  H         7.9795102081        1.3413238854       17.9516158099
  O         5.8949610996       -1.0807439216        8.6400345239
  H         6.3742819026       -1.4647481115        7.8646026292
  H         5.4255154334       -1.8184585768        9.0864951650
  O        19.5492501371       -3.3847910963        4.8464795200
  H        20.2794892699       -3.9242527212        4.5849506455
  H        18.9637021073       -3.9054393236        5.4488627624
  O         6.9915051237       -3.9096136646        8.9063323108
  H         7.0297934941       -4.8344129060        9.3487434854
  H         7.7236828583       -3.9593702529        8.1908816435
  O         1.1492132295       -2.5298187113        9.3533818616
  H         0.6431323861       -2.8632419719        8.5644059437
  H         2.1577726284       -2.6382496319        9.2253691803
  O         8.6775947881        3.4007429139        8.7054186982
  H         7.7161942560        3.0997014704        8.7219148109
  H         9.0664210947        3.3159353111        9.6037935744
  O        11.6911765234        3.0312357701        6.6422550365
  H        11.0333949156        2.3696948884        6.8426180378
  H        12.5443526195        2.5965782997        6.4521893104
  O         9.9660409990       -6.9790052696       12.8286879775
  H         9.3604928390       -6.4064431095       13.3280546739
  H        10.4823673222       -7.5865554001       13.4397039551
  O         8.5716269836       -5.3555941912       14.5169708693
  H         9.0773946263       -4.9949149494       15.3105348637
  H         7.6697536296       -5.3119262242       14.8373074328
  O         0.6483162435       -6.5611149920       15.7793699842
  H         0.4555912866       -6.0383964498       14.9511024132
  H         1.4722538862       -6.1881356475       16.1333954431
  O        15.2384650745        2.0450277605       13.6536911865
  H        14.7375615660        2.7045273280       13.0105458260
  H        14.9135780499        2.3338018588       14.5444254000
  O         9.0356702648       -3.4387697135       12.6161387700
  H         8.8181451973       -4.2213525160       13.2117664805
  H         9.9690019255       -3.1699458076       12.9075381216
  O        17.0990912855       -6.8015293746        4.5366351242
  H        16.4987239524       -7.4997978185        4.9942070534
  H        16.5693373737       -6.0349590084        4.4707975804
  O         1.6895554383       -9.3542129646        3.5238796120
  H         1.3014307043       -8.3903317653        3.5174673131
  H         2.2009245085       -9.3233209121        4.3606427599
  O         7.1504186906       -8.4282351852        0.4588313853
  H         6.5633639392       -9.0984321322        0.0917107183
  H         7.9569271184       -8.4799301635       -0.1157919361
  N         6.9058232333       -1.5290758995       13.2051931522
  H         7.0632052254       -0.8475458707       12.4286614075
  H         7.7427310099       -2.1336211703       13.0842605741
  H         6.0923937584       -2.0616846601       12.9079063161
  H         6.7389488121       -1.1230136138       14.1031656006
