     194
 CELL 12.4294 12.4294 12.4294 90.0 90.0 90.0 i =    96020, time =    48010.000, E =     -1097.1125466896
  O        20.0652057883       -0.4397195721       14.3767251533
  H        19.7281320878       -1.3815326166       14.5134654792
  H        19.7742937788        0.2028901059       15.0653171901
  O        25.7694809253      -11.3192728672       10.3195587725
  H        25.6549050137      -10.9233568410       11.2233438462
  H        26.1164210418      -12.2090066752       10.4303345637
  O        22.8850175569      -13.2626830475       16.9088447913
  H        22.4473479359      -12.5113813552       16.4891692117
  H        23.4654470845      -13.5756664963       16.1899527829
  O        18.5659253135       -2.9963352748       14.4568718383
  H        18.6662352083       -3.5104690623       15.2525754985
  H        17.6677950932       -2.5697524222       14.5251249670
  O        11.5227492582      -10.0809407841       16.6462014087
  H        12.1666952699       -9.7170385864       17.2708599166
  H        12.0567764366      -10.7320954320       16.0971837798
  O        31.4942381301       -7.0209294221       23.6367095145
  H        31.2081714870       -6.0967227622       23.9272708948
  H        30.6074958913       -7.5175305860       23.7378589528
  O        21.3591013457        1.5174604438        4.7530042277
  H        20.8529527438        2.3564735241        4.5128542868
  H        22.2534218120        1.9183465654        4.9640733097
  O        25.2568770253        0.4129342953       15.1307253687
  H        26.1988506437        0.1955671878       15.4064871288
  H        24.7983067249       -0.3146295620       14.6431750204
  O        18.4900263561       -6.2325447316        4.1804581378
  H        17.8381210463       -5.6252778024        3.7920594112
  H        18.1721865516       -6.4413095853        5.0726937514
  O        23.2116706053       -5.4133576314       12.4615421229
  H        23.4876633191       -6.3158184503       12.4613786414
  H        24.0938988693       -4.8701741263       12.5374505944
  O        23.5803903589       -8.1435885178        6.7109109152
  H        24.3349229883       -7.7775838917        6.2837612556
  H        23.8308530941       -9.0631030711        6.9985620418
  O        18.5570051118       -1.4878050973       10.1135781791
  H        18.4229760071       -0.6391164609       10.6147222267
  H        19.1777240467       -2.1517472492       10.6124139996
  O        15.4136686588       -0.0897446276       16.2436262362
  H        15.4408626083       -0.3831347714       17.1676355865
  H        15.9391347182        0.7930476212       16.3158195174
  O        25.6787171991      -10.1150988944       13.0149091475
  H        26.6059835319       -9.8317977577       13.2461032928
  H        25.3734568001      -10.7659761997       13.7069978071
  O        22.1799446286       -4.1670852066       14.4555863843
  H        22.4995412054       -4.6271268276       13.5598545721
  H        21.6032546232       -3.3556719247       14.2026854838
  O        28.1392243913       -2.3505055678       14.5950205052
  H        27.8969340898       -1.9972209576       13.7198702234
  H        27.9367175158       -1.6422384317       15.2598447930
  O        28.5312987810       -4.9431080883       16.0420498945
  H        28.4467133264       -4.4808456196       15.1813660940
  H        28.3437105680       -4.2717977090       16.6868298920
  O        26.4959787184        2.2190523522       18.2776248091
  H        26.3264261317        1.9252097719       19.1597450008
  H        26.4008232318        1.4126961337       17.6945688450
  O        23.9490769201        5.9275890138        9.4938758505
  H        23.5147363702        5.3654266247        8.8238606083
  H        23.9892129196        5.3963770329       10.2976748919
  O        16.9069261682      -10.3058577769       17.1249489333
  H        16.3272006520       -9.9788236249       17.8471868598
  H        17.5760389131       -9.7285829025       16.7672876899
  O        28.0179287382       -0.7576215411        6.4877400240
  H        27.2612329564       -0.7796279406        7.1661098048
  H        28.8441419852       -0.6797972164        7.0177716768
  O        22.6437407104        2.9249659028       12.8749449207
  H        22.6096378415        3.0605661814       11.9089020795
  H        22.7683420430        1.9310518670       12.9894560929
  O        28.7285338915       -3.2363647358       22.7379871118
  H        29.1334275064       -2.3753147552       22.5753702979
  H        28.5683059399       -3.7244323149       21.8913691940
  O        21.0877522721       -2.9551118925        4.8583152705
  H        21.3823408987       -2.0353184430        4.7643930189
  H        20.0890503092       -3.0419667862        4.8092167690
  O        23.0768030387       -3.1935672434        7.2597494664
  H        22.6568809713       -3.8371146090        7.9285146093
  H        22.4168039059       -3.2943219463        6.4720109534
  O        27.1271966285       -7.4925297246       15.7657528984
  H        27.6591541744       -6.6581542356       15.8221148755
  H        26.4223515831       -7.3426615261       15.1462937272
  O        31.8399695541      -11.8020083004       12.0004863484
  H        32.0171248335      -10.8389571876       12.2643719996
  H        32.0859687718      -12.2971199518       12.8350118531
  O        28.2864884438       -4.7403780528       20.3716584435
  H        29.0473628653       -5.3231678801       20.1681195225
  H        27.5724642469       -5.4533346923       20.5102444504
  O        20.5658135026       -7.2741441094        8.9708693313
  H        19.9084172333       -7.2407202360        9.7405240916
  H        21.1373790301       -7.9980224188        9.2688241728
  O        19.2765908827       -9.1725855588       15.8987207757
  H        19.2182844779       -9.1833995819       14.8751672478
  H        19.0758782610       -8.2257041800       16.2279021538
  O        17.9434329349       -4.7383527345       12.0083850518
  H        17.5503052605       -4.1808099052       11.3241075756
  H        18.0071447746       -4.1689638254       12.8799956700
  O        24.5563413004       -2.6599775053       22.7936549877
  H        24.2358100942       -3.4620287228       22.2956609065
  H        23.9009463766       -2.0106470641       23.0789570759
  O        24.7441910984       -7.6815187015       12.1553886811
  H        25.5182550948       -7.1238172127       12.4833667299
  H        25.0587324753       -8.6017565761       12.5832893147
  O        21.8742349212       -4.5740467799        9.5602747427
  H        21.3467370505       -5.3538933897        9.1914159084
  H        22.3175991972       -5.0556313326       10.2655113197
  O        34.8077018129       -1.1461986693       11.1128570384
  H        34.3674669605       -0.6777680021       10.3643039981
  H        34.1460523858       -1.8102125239       11.3512477621
  O        29.0290803021        2.5993692083        7.7386166773
  H        28.1717183335        2.5874701004        8.3087765229
  H        29.2487894676        1.6624906981        7.5661606096
  O        27.6913203275       -3.3127064011       18.1768854900
  H        27.9728816651       -3.7962161233       19.0087104428
  H        27.8447334028       -2.3100942909       18.5772863621
  O        29.0793477662       -8.2614462345       11.4904269518
  H        28.3503890560       -8.1670448307       10.8380861558
  H        29.3061083816       -9.2190774800       11.4951659737
  O        26.2462365805       -6.4472460026       20.4343145300
  H        25.4624946476       -6.3983951727       21.0038761860
  H        25.9529922354       -6.6096157131       19.5277117615
  O        27.2094314469       -8.9274798707        9.4494911922
  H        26.4382160321       -9.3672279699        9.8583965579
  H        26.8114827522       -8.1996152813        8.9016742561
  O        18.3475074272       -2.7949716750        4.8316884210
  H        17.9441336549       -2.9620596618        5.6961253964
  H        18.4987247255       -1.8027316623        4.7549615880
  O        25.6131951267       -4.0244128552       25.0883171658
  H        25.6409845668       -3.4337127514       25.9011197616
  H        25.4791969046       -3.4224831858       24.3507267152
  O        26.0079502346       -1.0195542317       20.7786760962
  H        25.6080915654       -1.8009381602       21.2707524345
  H        25.2268281266       -0.7105075809       20.3190969884
  O        19.5580062980        1.7316823919        7.2667405074
  H        20.0971510119        2.2780420872        6.6474005434
  H        18.8849489218        2.2893217032        7.6912906082
  O        23.1940760251       -0.4088273844       19.7217742496
  H        23.1285115128       -0.4584275227       18.7184055076
  H        23.0848601697       -1.4273970181       19.8704151463
  O        30.3771044332       -0.8243279447        7.5198789919
  H        31.0637060280       -0.1923413078        7.1605493789
  H        30.7426926754       -1.1614288085        8.3890597211
  O        27.3874101091       -0.8856381604       11.5368486403
  H        28.0596107579       -0.2854998286       11.9668173385
  H        27.7864431565       -1.6231512784       11.0577968567
  O        24.5173901347       -2.5717476234       14.9732667508
  H        23.7836836371       -3.1819759947       14.8084024355
  H        24.8464412971       -2.8203399854       15.8661563486
  O        18.9827543199        0.0564276731       16.9167910226
  H        18.2391770770        0.6442283882       17.1748247889
  H        19.7538052665        0.4344808111       17.3682487523
  O        20.5154499219       -3.1530382678       11.1977177715
  H        20.9061904535       -3.7099470810       10.4788773748
  H        20.2653780928       -3.9141620056       11.7459194322
  O        34.6843985602       -9.4642092183        9.9329690305
  H        35.3405840047       -9.7814508166        9.3161108121
  H        34.0730348725      -10.2326326337        9.8570510775
  O        20.8824275197      -11.9388054400        9.5298745689
  H        20.3169897729      -11.6068607329        8.7808546042
  H        20.2988740831      -12.0664017068       10.3153796673
  O        14.8903894722       -6.2339573113       12.9347901920
  H        15.8615996992       -6.2015994401       12.6283145916
  H        14.5720255160       -5.3024536297       12.9233496413
  O        22.9583066045        0.1874776194       13.3619246381
  H        22.8724196664       -0.2319061658       12.4771009007
  H        22.3015907158       -0.2583876525       13.9577578035
  O        24.3696415724        1.9571650443        8.1415359909
  H        23.9048653175        1.0701398660        7.8291884064
  H        24.7794856939        1.5958590108        8.9472274898
  O        23.6112122993       -7.8158740745       15.1388288557
  H        23.4875736410       -8.0778617973       14.2041625449
  H        23.5758400807       -8.6851438971       15.6202190300
  O        20.7587821670       -8.1537276541       18.3241135816
  H        21.7047096656       -8.2643311190       18.1693491997
  H        20.6842863397       -7.5392995339       19.1236499615
  O        13.2216428299       -6.8068602811       17.8818743809
  H        13.0491723026       -5.8929561102       17.5499174840
  H        13.7916488722       -7.2185214525       17.2046391036
  O        29.0908962426        0.8132904331       12.5941963527
  H        28.8032313772        1.4217055819       13.2655482293
  H        30.0999636254        0.7801919750       12.3142278881
  O        25.1707090735       -3.9107924527       17.5869493936
  H        24.5663754933       -3.4961621503       18.2190605561
  H        26.0895841610       -3.5360135120       17.8320786591
  O        30.2938129257       -6.8815778240        7.1637622824
  H        29.7974880645       -7.7646635309        7.3486218099
  H        31.1732359556       -7.1906495606        7.5616697329
  O        15.8775204299       -9.4220557426        1.6221562940
  H        16.0603770706       -8.5648444880        1.2108926333
  H        15.5162134005       -9.1581277140        2.5012971985
  O        19.7917462792       -8.9810272203        0.5544259665
  H        20.8064484077       -9.2197006071        0.4310115598
  H        19.6493068252       -8.2566462222       -0.1096740299
  N        22.1794248288       -5.8749736440       16.6702484467
  H        21.8786675663       -5.0807776910       16.0608833766
  H        22.6146749588       -6.5670417030       16.0149861018
  H        21.4908330248       -6.3292259332       17.2539161306
  H        22.9544467758       -5.5160624714       17.2883754723
