     194
 CELL 12.4294 12.4294 12.4294 90.0 90.0 90.0 i =    87220, time =    43610.000, E =     -1097.1392783732
  O        17.6042661950        0.4599064667       13.3741244451
  H        17.5218682584       -0.2986990477       12.7515887362
  H        18.3505616940        1.0655052168       13.0865273871
  O        23.1863322115      -10.6176538175        9.1318172418
  H        22.4004899054      -10.4879738958        9.7787840133
  H        23.8134341210      -11.3411491785        9.3475773142
  O        22.0685859096      -12.4936765980       12.2323413917
  H        21.6859486741      -12.2242265632       13.0697845086
  H        22.2912774565      -13.4768107647       12.2974414958
  O        14.9703972819       -2.8226746796       13.7127101033
  H        15.0493510700       -3.4463567076       14.4812469599
  H        14.0995184937       -2.4115325940       13.8217627563
  O         9.9294194031       -9.3451097531       14.2842399079
  H        10.1798511326       -9.7016410045       15.1836906273
  H        10.5043523514       -9.7554304029       13.5616516948
  O        26.1361399481       -7.4709034789       24.1884616471
  H        26.3623392495       -6.5709444086       23.9210375502
  H        26.3927528526       -7.9709187227       23.3655582885
  O        21.0582048447        0.2234349866        2.4871633054
  H        20.3154576078        0.8548589695        2.6783037779
  H        21.6724880242        0.4131085955        3.1929190418
  O        23.9190512013        2.3376545828       12.0636968185
  H        24.7716695567        1.8680001253       12.3549737489
  H        23.3169901270        1.6458465142       11.7068223934
  O        16.4464515481       -7.1100264653        3.5788690184
  H        15.9567801944       -7.5317194685        2.8004159470
  H        15.9845376923       -7.4495991836        4.4137817075
  O        19.6313249402       -2.8173512318       10.4858052495
  H        20.1417568423       -3.4373108982       11.0617534666
  H        20.2970889350       -2.3123468833        9.9685370810
  O        20.6241089692       -8.7793171717        5.4813045938
  H        21.3645274897       -8.1902617600        5.1566468844
  H        20.9398625622       -9.4839151940        6.1002696080
  O        15.7272171987        0.1403184066       10.3871011487
  H        14.8674435716        0.1522340777        9.9714372849
  H        15.9717182169       -0.8105810745       10.3041206435
  O        12.6104541844       -1.4839477324       14.0703331530
  H        12.0200841066       -1.7175492887       14.8100032544
  H        12.7570579638       -0.4921375562       14.0347570011
  O        23.1155981620       -7.3976065345       11.6497455825
  H        23.6258963891       -6.5770657588       11.4537265868
  H        23.7825411673       -8.0841253161       11.7129963896
  O        17.7645189800       -1.9464326219       12.4266628493
  H        18.2531247345       -2.1598785953       11.6081902062
  H        16.8759114106       -2.3768240266       12.5152589171
  O        25.4712364785       -1.5881032403       11.3760984244
  H        26.3866008190       -1.7643227368       11.5326926070
  H        25.0565491772       -1.7569180742       12.2779220618
  O        24.6947286424       -4.9052778143       14.1060124615
  H        25.5508339667       -4.7860423306       13.6046551918
  H        24.8826382553       -4.6350689979       15.0627078084
  O        23.1169582078        1.9531400995       16.6422110798
  H        22.5302244153        1.8497114623       17.4446987926
  H        24.0127136141        2.1939636912       16.9384250046
  O        21.5426755172        4.3570044895        9.4806060674
  H        20.5082363969        4.3494202819        9.6334524130
  H        21.8956900710        4.6054966568       10.3755115371
  O        16.6779559690      -10.4250884842       15.1599191990
  H        16.8758439114      -10.9076466617       14.3199129776
  H        15.9809414630       -9.7010108014       14.8489475040
  O        23.8373254670       -1.9679674709        3.8898679718
  H        22.9903654910       -2.0414063821        4.3229562071
  H        24.3363333700       -1.2586345483        4.4060003358
  O        19.6501464264        2.3130586495       13.2738133490
  H        20.5488795131        2.5048979548       13.6921931742
  H        19.8899804127        2.1834520304       12.3365469118
  O        26.4332441266       -1.6107131862       19.9068833834
  H        27.1412381371       -1.7736587483       20.5747156126
  H        26.0754143444       -2.5203270934       19.9022505185
  O        17.1067557810       -2.3383813401        4.1401043899
  H        16.4606091449       -1.6153070277        4.2094919950
  H        16.4481619237       -3.1579130228        4.1552263757
  O        18.8823121251       -2.1646989369        6.1054902813
  H        18.5385310755       -2.6054660574        6.9077678921
  H        18.0557071117       -2.2032089661        5.5011169968
  O        24.3884329399       -7.6158877243       14.8846080938
  H        24.3297239564       -6.8603337067       14.2713848018
  H        23.6712695551       -8.2637951604       14.6631249344
  O        28.6135502482       -9.5253910157       11.3894553942
  H        28.9126253249       -8.8683610678       12.0539172996
  H        29.0199332536      -10.3957057589       11.5643435939
  O        25.2705390650       -3.9796897126       20.2701126436
  H        25.6458236725       -4.8596823850       19.9946817672
  H        24.2931826849       -3.9523011881       19.9339867303
  O        14.8754114803       -6.2914275739        7.6511429903
  H        14.7355271973       -6.9332920138        8.4465868642
  H        15.7980541257       -5.9495386804        7.7772484183
  O        18.9508532683      -10.6191572175       16.5672073716
  H        19.5244011691       -9.8621451651       16.7159101057
  H        18.2948054563      -10.4079168127       15.8654476099
  O        14.8625710441       -4.5299386852       11.2536080924
  H        13.9261035841       -4.4140115149       11.0832490748
  H        14.9020685707       -4.0010682812       12.0790305339
  O        20.0563428507       -0.0667976147       19.8926525698
  H        19.5367106636       -0.6962377528       19.2867656714
  H        19.4649486610        0.0770282479       20.6595784333
  O        21.2392270033       -4.9701878060       11.7341778060
  H        21.6031940186       -5.6407888224       11.0891133091
  H        20.9666995419       -5.4154604196       12.5966049274
  O        17.8720663895       -3.6709749767        8.4084366311
  H        17.8066562988       -4.6644787519        8.2879418394
  H        18.4414224505       -3.5496956612        9.2540561428
  O        30.4187587984        1.2775573523        8.9874179744
  H        30.1487082435        1.5156902843        8.0603693401
  H        29.5364124197        1.0205440395        9.2746421644
  O        25.7435759699        2.6039576251        6.1283991412
  H        25.2396590739        3.1097557748        6.8120914451
  H        25.5169896463        1.6957839601        6.2458352827
  O        25.1151377079       -4.4830890002       16.8149068654
  H        24.3985474826       -5.0272798210       17.2877227943
  H        24.7666213334       -3.5291232910       16.8120118735
  O        27.1461551096       -8.5276676630        9.3953241037
  H        26.4611407151       -9.1437484023        9.0274744225
  H        27.6627957479       -9.0250012340       10.0751979236
  O        22.7105265989       -6.1679063643       20.2001273943
  H        22.1509628789       -6.8131618940       20.7332236019
  H        22.8729269532       -6.4668167643       19.3371462877
  O        24.5923559937       -8.5245287588        8.0339379584
  H        24.0447825022       -9.1787578013        8.5601933083
  H        24.1741974218       -7.6359146263        8.1591165851
  O        15.3050562845       -4.2545819851        3.7464630126
  H        15.6059354575       -5.1984109371        3.6396258935
  H        14.4938430257       -4.3546851167        4.2934766970
  O        21.7755824679       -1.6165727840       21.6387855957
  H        22.5005378936       -1.2780650273       22.1792107701
  H        21.6208595873       -0.9323858273       20.9487234210
  O        22.6098422163       -3.6264353478       19.4167612190
  H        22.5391032537       -4.5020766971       19.8633724839
  H        22.5511671775       -2.8606303364       20.0118820367
  O        17.0933696616        1.8265439923        6.3527368979
  H        17.8228701580        1.8906596629        5.5973901939
  H        16.6460306502        2.7052047998        6.3443695597
  O        21.1117780434       -2.9498471801       17.1660313854
  H        21.7870316409       -3.1295636460       17.8899442628
  H        20.3291565270       -2.6370132916       17.7477839588
  O        25.5164063528       -0.5195840256        5.3390944936
  H        26.3759121407       -0.3995558238        4.7856452238
  H        25.8353459612       -0.9938656017        6.1269049109
  O        24.8036930511       -0.2027557333        9.2133077660
  H        25.0971810677       -0.7158481606        9.9855988138
  H        25.2489375528       -0.5957074895        8.3982442798
  O        22.6623258249       -2.7413725731       12.5821737603
  H        22.0445996920       -3.5250353774       12.2162275030
  H        23.3758823998       -3.2022716554       13.0835299112
  O        15.8182550059       -0.0021526984       16.9450884890
  H        16.1019987086        0.6321873592       16.2822345328
  H        16.0707885308        0.4059364342       17.8042116170
  O        15.9013894832       -2.4197553030        9.7517078020
  H        16.4603711998       -2.9394486022        9.1524775132
  H        15.5669559883       -3.0690100540       10.3733848349
  O        30.2589959961       -6.6502679699        7.7489734049
  H        30.7474504540       -6.6826367285        6.8714465745
  H        30.7939121951       -7.1803541929        8.3913081865
  O        18.8359944914       -8.4734997468        9.6881172888
  H        18.5560489764       -9.3727960052        9.3874610367
  H        18.5324577544       -8.4368579645       10.6435188838
  O        12.0218734425       -4.5856195620       10.7061777107
  H        12.3737130834       -4.5156628615        9.7862440921
  H        11.5579397420       -3.7729406923       10.9604836891
  O        20.8718114030        1.7123072508       10.7225977379
  H        20.1894223397        1.4049917717       10.0340665530
  H        21.2954640743        0.9442081722       11.2177132939
  O        21.9516862569        1.6395871027        6.7547595668
  H        21.1987208328        1.1891932061        7.0530826249
  H        22.4927752841        1.9422631696        7.5606862837
  O        20.6355051328       -6.6483516261       13.9558229420
  H        20.6004895595       -6.3100282104       14.8978929962
  H        21.2254689057       -7.4123684217       13.9109043424
  O        18.6689265816       -7.0537639306       17.4796251859
  H        19.0750863605       -7.9073554027       17.7836539554
  H        17.9135994167       -7.2344664434       16.8678403991
  O        10.7105906388       -6.9094258783       17.3030141719
  H         9.8999258081       -6.4275722212       16.9646413621
  H        11.2097762230       -7.1869082002       16.5083108384
  O        26.3762447896        1.0702834202       13.0260527617
  H        27.0131408553        1.7498151339       13.4255278847
  H        26.8859696272        0.3842866505       12.5528017668
  O        20.6383028068       -5.6914258926       16.4899397866
  H        19.8147896439       -6.1723950655       16.9081796916
  H        20.6639511065       -4.7620356929       16.8969349041
  O        28.1364221934       -8.2258972970        5.7877060749
  H        27.4924824349       -8.9601095333        5.5861640591
  H        27.7800383288       -7.6004241040        6.4559869256
  O        14.5937489061       -8.5357698787        1.7516554583
  H        14.5943934825       -8.2659427104        0.8239967144
  H        13.6938525080       -8.2921319732        2.1417932767
  O        18.2138063010       -7.6394406560        0.2046969195
  H        18.9088479373       -8.0043962829        0.8176664295
  H        18.3690732967       -6.6828191773        0.1908984962
  N        19.4181572398       -2.2096619013       14.9658997312
  H        18.5659916270       -2.1538705628       15.5420485777
  H        18.9875557950       -2.3901804712       14.0245599935
  H        20.0185556922       -3.0071179493       15.2669017433
  H        20.0372547539       -1.2941876495       15.0684476422
