     194
 CELL 12.4294 12.4294 12.4294 90.0 90.0 90.0 i =    94020, time =    47010.000, E =     -1097.1322904638
  O        19.8126051826       -0.8555903128       14.1703690067
  H        19.0547869460       -1.4565517192       14.3804178704
  H        19.9300473607       -0.3302943859       14.9845374730
  O        24.5699056312      -10.6472163886       10.2306265190
  H        24.6360103290      -10.2942294429       11.1894988557
  H        24.8915379301      -11.5658308225       10.4606873119
  O        22.4732130217      -12.6347968755       16.0857334725
  H        22.9685717094      -11.7757203613       16.0965820850
  H        23.1705424840      -13.3079953721       15.7609817147
  O        17.9560534300       -3.1585911064       14.5517762867
  H        18.0364614451       -3.7749083217       15.3658929625
  H        17.0093743799       -3.0309410688       14.4249860381
  O        11.4367466106       -9.9856553648       16.1445412062
  H        12.1218986408      -10.0048119542       16.8863623529
  H        11.9842096600      -10.3542303761       15.3571556938
  O        29.7347418336       -7.1997706987       25.0684930280
  H        29.4741126538       -6.2977561295       24.8897360751
  H        29.2086839550       -7.7347644039       24.3855171905
  O        21.2492074688        2.5330605111        4.9420523592
  H        20.5653016653        2.6478156626        4.2180206581
  H        22.1248758236        2.3477634696        4.4714676409
  O        25.3258063737        1.1490711482       14.1615967304
  H        25.8121062598        0.4066408113       14.6731664375
  H        24.5282645922        0.7567523114       13.6167508803
  O        17.7179370137       -7.8696632609        4.2090388830
  H        16.8582211118       -7.9669817421        3.7842485507
  H        17.4902584387       -7.7849564318        5.1515943888
  O        23.0724395247       -4.1954958607       11.8402988779
  H        23.1774719378       -5.1568586981       11.7548630341
  H        23.9552583952       -3.9150175283       12.1662655722
  O        22.7985957925       -7.7362509460        6.6943764002
  H        23.4832944923       -7.4944421537        6.0224947693
  H        22.8011566543       -8.7211083585        6.9369415133
  O        17.9073881325       -0.9722438205        9.6262228698
  H        18.0914518361       -0.2182338307       10.2225146805
  H        18.6796621390       -1.6209727852        9.7779385981
  O        14.9419604461       -0.0722397779       15.5670366971
  H        15.0987707315       -0.6105261744       16.3478667982
  H        15.5568755636        0.6880689477       15.8030402782
  O        25.5348484819       -9.0729507576       12.5197117237
  H        26.3064968642       -9.0417269127       11.9499822456
  H        25.7077334283       -9.9183059471       13.0838493533
  O        21.8212924676       -3.1380933629       14.1462243264
  H        21.9273636280       -3.6273550275       13.3024256147
  H        21.0150420482       -2.6280587048       14.2329700641
  O        27.9235594256       -2.4168981259       14.2161659058
  H        27.3672537675       -2.4829156865       13.4468775627
  H        27.7503832534       -1.4770241756       14.5764299066
  O        26.6120649626       -4.5302683543       16.5185857322
  H        26.9579425529       -3.7836502202       15.9509915100
  H        27.2868450137       -4.5400528247       17.1972644790
  O        25.4689757593        2.7193959824       18.2214260058
  H        24.8464282048        2.3961914927       18.9320120866
  H        26.3364338684        2.3073427426       18.4137970720
  O        23.0961976574        6.6338912057        8.8252023896
  H        23.0386524800        5.9676322138        8.0426210141
  H        23.5912140635        6.1253872581        9.5307567152
  O        16.7960021917      -10.9620304453       16.8288479345
  H        16.2413318346      -10.6268974144       17.5298491526
  H        16.9860323811      -10.1677525649       16.2633129373
  O        27.7613208610       -1.7109460769        5.5869988874
  H        27.1070081373       -1.7763226476        6.3457669109
  H        28.4749537110       -1.2538235644        6.0811868745
  O        22.1253308917        3.2838677843       12.2294600660
  H        22.2257948789        3.1919864227       11.2641594445
  H        22.2581179448        2.3324915173       12.5007195706
  O        27.8165271635       -2.4345585382       22.3970856477
  H        28.6100736453       -1.9281355922       22.2029282791
  H        27.9879594124       -3.2692626883       21.9451907743
  O        20.1582271751       -2.9831459167        4.6441482658
  H        19.5935704264       -2.1603282120        4.6764257990
  H        19.4849485330       -3.6974093116        4.7436944437
  O        21.8912870430       -2.7934603719        6.6249184436
  H        21.6747956480       -3.4512240549        7.3295817354
  H        21.1202447866       -2.8610855630        5.9272345595
  O        26.5555361060       -6.9169192404       15.0182784609
  H        26.8108187973       -6.0624687439       15.5013225321
  H        26.2770323296       -6.6845386554       14.1374549427
  O        31.3668508241      -11.7739937987       11.8130784541
  H        31.5008047724      -10.8330504144       12.1052203872
  H        31.9436841037      -12.3548504111       12.4143427416
  O        28.1401521544       -5.0077340214       21.2363980354
  H        28.9212756634       -5.6169787827       21.2273180755
  H        27.3343466088       -5.4980710278       20.9368857416
  O        18.5068035049       -6.7628318912        9.5127104341
  H        18.3658419726       -6.8137724249       10.4905191983
  H        19.3552512026       -7.2585013127        9.5195673256
  O        19.4682350932       -9.7998912417       15.1959550485
  H        19.7502275278       -9.4877814496       14.2956790240
  H        18.9867571842       -9.0663504118       15.6195449583
  O        17.6318488304       -4.0645044992       11.9799536571
  H        16.9104045060       -3.5870504306       11.5409407815
  H        17.7575506841       -3.5417172473       12.8146256314
  O        24.0158216183       -2.4699631527       22.0305834073
  H        23.5080517426       -3.2384423977       22.3386539028
  H        23.5273884998       -1.6951198439       22.3995849125
  O        24.2463529125       -6.8732642074       11.0929496286
  H        25.1774637585       -6.4797488317       11.2385905050
  H        24.3699130534       -7.8058735854       11.3803825107
  O        20.5350308300       -4.3875180501        8.7755057143
  H        19.7691874409       -5.0108853662        8.7903149688
  H        21.2661392925       -5.0029628747        9.1059522165
  O        34.7586809165       -0.6534319280       10.7020384999
  H        34.4066656805        0.1352926665       10.1361684053
  H        33.9903547844       -1.1824877695       10.9791519696
  O        28.3482999508        2.1466074329        7.0308906651
  H        27.7983796703        2.3224168847        7.7826797229
  H        28.7868943147        1.2320854146        7.1370102863
  O        28.7636933534       -4.1849410891       18.4848049484
  H        28.5738770251       -4.5939314346       19.3858496192
  H        28.4100034030       -3.2709173816       18.3994538111
  O        28.0712923244       -8.7004730586       11.1523629495
  H        27.6580795655       -8.8369127538       10.2576105288
  H        28.2452154765       -9.5904335058       11.4468765932
  O        25.8813506674       -6.5568603542       20.4576137305
  H        25.1038868711       -6.1939927008       20.9036390353
  H        25.5225841174       -6.4448244027       19.4903587051
  O        26.6371827392       -9.2503803743        8.8064700852
  H        25.9508863958       -9.6692000679        9.3862468624
  H        26.2186054302       -8.4400529364        8.4653143104
  O        18.4352901084       -4.9935622250        4.3589779722
  H        18.3363388165       -5.9420543974        4.1241193631
  H        17.7608099119       -4.8432960523        5.1034781964
  O        25.3583255497       -2.5299485240       25.1625548549
  H        24.9128930112       -2.4044217555       26.0265065973
  H        24.9886173093       -1.8670551409       24.5689803957
  O        25.4052423299       -1.8531037134       19.5543889464
  H        24.8858094717       -2.2983458289       20.2587966075
  H        24.6516586250       -1.3139107244       19.1115496804
  O        19.8777246878        2.0279759687        7.2291045474
  H        20.4766295717        2.2079611833        6.4547242959
  H        19.1743414089        2.7395097414        7.0858832222
  O        22.9229456643       -0.3763711868       18.8724826264
  H        22.6420593312       -0.3376277852       17.9293559448
  H        22.3071356267       -1.0646654312       19.2505752613
  O        29.5681753008       -0.1136518399        7.0245937528
  H        30.3074851872       -0.3289452945        6.3876848102
  H        29.7727042976       -0.4145495864        7.9919388749
  O        26.2412613976       -0.1861152753       11.0196232829
  H        26.7802677991        0.0884119624       11.7894455417
  H        26.6291923421       -1.0179330679       10.6355076414
  O        24.1698577646       -2.2793739641       15.1841101236
  H        23.3673038445       -2.8300387054       15.0855249209
  H        24.6513234421       -2.5264769754       15.9556753832
  O        19.2608616123       -0.0952449821       17.5485313829
  H        18.7160955598        0.6226603016       17.1664387878
  H        20.0363159114        0.3130528656       17.8911276781
  O        19.8707164353       -2.4557448139       10.5563075947
  H        20.1528791493       -3.1277531980        9.8351024927
  H        19.0871926690       -2.9186043423       10.9830224015
  O        33.4232176426       -8.2039485019        9.6786980680
  H        34.0559021963       -7.8604180521        8.9060022390
  H        33.2651865316       -9.1807468829        9.4319131323
  O        20.8672039311      -10.8515333964        9.8206969514
  H        20.3952304621      -11.0907642708        8.9801715823
  H        20.1975969200      -11.2796652795       10.4968817075
  O        14.1376086367       -5.1868703108       11.5990905820
  H        14.8107070622       -5.3284350443       10.9109413981
  H        13.8899895190       -4.2755958767       11.6393846746
  O        22.7722272056        0.5459566493       13.0856276891
  H        22.5301161606       -0.0201294101       12.2915225820
  H        22.3165440195        0.1971603711       13.8985828146
  O        23.3782641107        2.0045082320        7.5782149484
  H        23.1335529796        1.1488797854        7.1550438197
  H        23.8028772120        1.8920478856        8.4934037949
  O        23.2876320685       -7.6713385216       14.5060532435
  H        23.1317927017       -7.9173896591       13.5410324608
  H        23.6033523536       -8.4850035841       14.9965616440
  O        20.5022341753       -6.9288831704       17.8946965336
  H        21.2763690782       -7.4031637115       18.3664557955
  H        19.6831658641       -7.4073782798       18.1651441960
  O        12.5119339136       -6.6724934619       17.7536492278
  H        12.6410850121       -5.8678945311       17.2397535907
  H        12.9012924331       -7.4612385071       17.2936903683
  O        28.0100289151        1.3236001377       12.6162809769
  H        28.0872209314        1.7593849574       13.4369110967
  H        28.9107957047        0.9831288793       12.4588812585
  O        24.0881769528       -3.6705186211       17.6530759286
  H        23.5561356365       -3.2886376826       18.4289898622
  H        25.0320436136       -3.6521816313       17.9401609695
  O        30.3093339211       -8.2723025324        7.1355115008
  H        29.5706258153       -8.9522971424        7.2604960696
  H        30.2507325948       -7.8315463054        8.0131469366
  O        16.1140441159       -8.8890317888        2.0830746632
  H        16.7290856128       -8.2942851767        1.6022993174
  H        15.3899822649       -8.2493220452        2.3071102691
  O        19.3406956624       -9.1939984068        0.2078394882
  H        20.2780464356       -8.8721400601       -0.0029981797
  H        18.6863485934       -8.4710803487        0.1126339380
  N        22.1183119578       -5.3580526445       16.1839004521
  H        21.6795726893       -4.5996865797       15.6367325829
  H        22.4522196292       -6.1310874856       15.5611900981
  H        21.3920765238       -5.8113360586       16.8310815877
  H        22.8631559782       -4.9223642297       16.6577830264
