     194
 CELL 12.4294 12.4294 12.4294 90.0 90.0 90.0 i =    68020, time =    34010.000, E =     -1097.1477630341
  O        10.2888410336        0.2453005356       10.6224571779
  H        10.2379457213       -0.7945163934       10.6710137938
  H        11.2702956190        0.4572789876       10.7026658714
  O        14.8344550167       -8.9887097542        9.4411133960
  H        14.3508720439       -8.1959759623        9.6945474406
  H        14.2556420835       -9.4721177235        8.7815333969
  O        12.6022220683      -10.4950183517       11.1201977159
  H        12.9678680853       -9.8407620699       11.7779873952
  H        13.3516865041      -11.0195396350       10.7182790598
  O         7.1427357527       -3.0886745451       13.0812708504
  H         6.8188390033       -3.9585826614       13.3274693403
  H         6.5462269118       -2.4156207465       13.3533103190
  O         1.7661748138       -9.2071376362       13.1783649045
  H         1.7239820160       -9.9135520944       13.8504044873
  H         2.6851913658       -9.1969612373       12.8685000409
  O        16.7980309357       -5.6259627280       22.3012730126
  H        17.4400634992       -6.0085949320       21.6941486411
  H        16.8269608497       -4.6060371618       22.3414327784
  O        12.0392527928        0.1557351571        1.6766471390
  H        11.8498068086        0.9624543920        2.2669513963
  H        12.7189961860        0.4679974956        1.0489853685
  O        16.5432539515        3.0346605804       11.5741642067
  H        15.7703111195        2.9818743925       10.8118647173
  H        16.6005120346        3.9868149706       11.8321686747
  O         9.0234828891       -7.2632353350        2.4880063128
  H         9.2349924010       -8.0770015545        2.0013642298
  H         8.3639728850       -7.5380469042        3.2239902884
  O        12.4831461968       -1.8116434864        8.8848568104
  H        11.8563295016       -2.1129069248        9.6161475874
  H        12.8706831339       -2.6360945846        8.4030860118
  O        13.9169555585       -8.9063338820        4.7591848842
  H        14.4468950738       -8.1063534735        4.6921818165
  H        13.6786544409       -8.8235849346        5.7281482427
  O         8.5296119458        1.9436681784        8.6109710616
  H         8.2666748871        2.0895087337        7.6999969633
  H         8.4702724822        0.9918175930        8.7755830377
  O         5.1760145298       -1.1524643680       13.6904732391
  H         4.4199587055       -1.1268894615       14.2910384574
  H         5.2746046359       -0.1972663535       13.5258726111
  O        14.0684198781       -6.2871008118       10.2662643229
  H        14.9602004435       -5.8966637956       10.1522693216
  H        13.8873280712       -6.2295622397       11.2622934547
  O        10.7166621122       -2.4851772149       10.8833995550
  H         9.9773789215       -2.9727149847       10.4961052572
  H        10.9989387893       -3.0087804582       11.6986959900
  O        15.8491060377       -1.6157183155       11.4317557617
  H        16.1079331164       -2.2590312922       10.7152404440
  H        16.6571626033       -1.5881168175       12.0266740183
  O        14.9275293080       -5.6122526796       13.9128149667
  H        14.1290877768       -6.0964909726       13.6461670907
  H        14.6027199028       -4.7125744720       14.0802777823
  O        15.1377816963        1.6703402965       15.3107302450
  H        15.9554119599        2.2451289069       15.1959144917
  H        14.7729959616        2.1327000718       16.1102035170
  O        11.6552149445        4.7758349934        7.4847341405
  H        10.9141842690        4.6288937831        6.9230864051
  H        11.6201876163        4.1232705285        8.2440864341
  O         8.6828769153      -11.5193977823       12.8414684589
  H         9.0195972325      -11.6737113689       11.9356956550
  H         7.7313086602      -11.3198200615       12.8515456065
  O        15.1885281904       -1.0993627037        2.8037260005
  H        15.1969697954       -1.4067094354        3.7305429240
  H        15.0792561933       -0.1396494999        2.9138454393
  O         9.2118315878        4.8415746786       11.2970039927
  H         9.7790565223        4.5431376146       10.5375891430
  H         8.3172975785        4.4900155988       11.0511446727
  O        18.2687534059       -0.9388561248       19.7905038694
  H        18.9845080333       -0.7810838832       20.4515020810
  H        18.5156928149       -1.7028025712       19.1499452152
  O         6.6282229495       -3.2374461693        5.8366798452
  H         7.2734403840       -2.9020961093        5.1121482542
  H         7.0446523010       -3.8444177648        6.4750688549
  O         8.9068024956       -2.4291812661        4.3864746776
  H         9.4544267284       -3.2010185556        4.7253103797
  H         9.1609523523       -1.6909276118        5.0162301716
  O        16.9236383278       -6.7699139043       12.3249550589
  H        16.8667765409       -6.2945450645       11.3414607273
  H        16.1562496405       -6.3092083044       12.8085989454
  O        19.4286148379       -9.0650492749       10.5306304688
  H        18.6256248302       -9.5059408211       10.8701446403
  H        19.6551860612       -9.5405691980        9.7283962499
  O        14.0512113877       -3.4351597787       19.8579900039
  H        14.1196810928       -2.9017064167       19.0312370967
  H        13.9664248326       -4.3987521421       19.6536146830
  O         8.0327360047       -5.1067746581        7.0210402512
  H         7.4792462725       -5.9111274031        7.0400846858
  H         8.2969300915       -4.9723869075        7.9535480059
  O        11.2253332714       -9.9149440876       16.1512762159
  H        12.1283850543       -9.6093185258       16.5401505937
  H        11.0759149550       -9.3850611493       15.3690865299
  O         7.7555880162       -3.0264197860       10.4742021431
  H         8.1844055114       -3.8523137321       10.2519207216
  H         7.4132771716       -2.9646561527       11.4053932460
  O        12.1764074073       -1.3764923603       16.3801385651
  H        12.2575772079       -0.9736928284       15.4794317357
  H        11.3780022872       -1.0618012615       16.8740462914
  O        11.7692545042       -5.1128271815        8.8057731836
  H        11.7930769447       -5.9529228717        8.3321904419
  H        12.2213559276       -5.2471492757        9.6517986492
  O         9.7961241138       -2.8936185696        7.4043679399
  H         9.9022618884       -3.7401962843        6.8522446328
  H        10.5943326782       -2.9666391614        7.9881664596
  O        23.8595999068        0.3581233976        7.8726775610
  H        23.2783685456        0.7675605053        8.4849381827
  H        24.1519383192       -0.5358209338        8.2011487807
  O        17.7053750008        3.2337787304        5.3885221357
  H        16.9533707980        3.6642333275        5.9505999831
  H        18.0694819009        2.4420491246        5.8826972228
  O        17.9766753551       -5.3946112486       16.3675166597
  H        18.1956566593       -5.1883402607       15.4476188078
  H        18.2686888423       -4.6813899021       16.9650954258
  O        18.5893268031       -7.0567430973        8.2554287346
  H        17.8194672439       -7.5454272177        7.9732604032
  H        19.0102075867       -7.7281689326        8.8636777099
  O        14.0161693118       -6.0922419587       19.4840248702
  H        13.1267710565       -6.6074270766       19.5992878104
  H        14.1201044797       -6.1571531609       18.4869167349
  O        15.9083332704       -7.8361798783        7.0014553102
  H        15.7336294211       -8.5755697861        7.6166233724
  H        15.3456452992       -7.0458408289        7.2168495316
  O         6.6328832524       -5.6435151077        1.2451153286
  H         7.4793239749       -6.2570978444        1.1719797354
  H         5.9167921366       -6.1201989940        0.7021309824
  O        14.6163390670       -1.7595277967       17.7179923246
  H        14.9257587902       -1.0710852826       18.3953111157
  H        13.8103683452       -1.4002293736       17.2722617605
  O        13.1282454921       -4.3868928969       16.2229696612
  H        14.0355704028       -4.4485461957       16.4879992889
  H        12.8836189322       -3.4613837416       16.4046685179
  O         9.9214561930        4.7630097597        5.4415684743
  H        10.1846000642        4.0569572129        4.7908577869
  H         8.9101709117        4.7037606764        5.4263853233
  O        14.2011519596       -2.8983173198       13.2912292166
  H        14.4356984719       -2.3260483882       14.0607859253
  H        14.6341481253       -2.4737179354       12.4865031647
  O        19.9493645163        1.3312704550        5.9341799899
  H        20.8569419805        1.0798197151        5.5842495003
  H        19.4396102265        0.4507051457        6.0675819926
  O        15.6415844522        0.2155306520        7.3372950249
  H        15.3754943679        0.3222159133        8.2588352323
  H        16.5611963933       -0.0328860001        7.2785329370
  O        14.3135271190        0.2570428645        9.8158640819
  H        13.5861757438       -0.3542070238        9.3881236544
  H        14.8681131348       -0.4047721945       10.3714999427
  O        10.2965651743        0.2505694857       17.7616771710
  H        10.7027067862        1.0398991484       17.3278201952
  H        10.5924334101        0.2909372075       18.7318497616
  O         8.2094000146       -0.9821801607        8.9202666463
  H         8.7945823921       -1.5583697703        8.4429199269
  H         7.8424750357       -1.5829445008        9.6681909485
  O        23.1026637819       -4.7634659220        5.3869347319
  H        24.0589616799       -4.8949120943        5.5306444503
  H        22.7385880377       -5.6414741413        5.6609616640
  O         9.3434691833       -5.0247417498        9.7603683724
  H         9.3177385593       -5.9052124592       10.2555781528
  H        10.2919346146       -4.9562220731        9.4037456643
  O         3.8272849137       -3.0069275640        9.1347201787
  H         2.9834698702       -3.1092380185        8.5566111571
  H         4.3474649896       -2.4841463539        8.5053422588
  O        10.6709449403        3.3514522178        9.6344489313
  H        10.0392862015        2.6452266096        9.3757595013
  H        11.2270890077        2.8905757029       10.2876125690
  O        13.7126597937        2.2209189391        7.2205831964
  H        13.0508722160        1.5686817877        7.4464847949
  H        14.4992859943        1.6332597312        7.1893738053
  O        12.7573511695       -6.9028267588       12.5622243199
  H        12.2325022253       -6.6588102728       13.3420770615
  H        13.0955632141       -7.7406967247       12.8116075973
  O        11.4333175495       -5.9689846974       14.7958468818
  H        11.7434503775       -5.6251955484       15.6579313617
  H        10.6576798040       -6.5101971879       14.8800606930
  O         2.9593272412       -6.3704739843       16.6849639192
  H         2.5695078579       -6.3989309098       15.7856005045
  H         3.8572464307       -6.1542510999       16.4571750588
  O        18.2524258512        1.7027225461       13.1546594779
  H        17.5355999726        2.1411747865       12.6031119660
  H        18.5151429554        2.2702290355       13.9031334366
  O        11.6941667128       -3.6195885406       13.1757025073
  H        11.5402702934       -4.4381621579       13.6769874234
  H        12.6434577129       -3.3585750681       13.3614771683
  O        19.8666513676       -7.4395768448        4.6530903838
  H        19.1536541806       -8.0911308700        4.9634525276
  H        19.2992376701       -6.6410841481        4.3630479456
  O         4.7855795526       -9.1774348414        2.6257680531
  H         4.9280892956       -8.2374068542        2.4751761469
  H         4.8879257194       -9.3357690529        3.6196009470
  O        10.4556730359       -9.3330017284        1.1094516124
  H         9.8071755746      -10.0982533261        0.9897496814
  H        10.2840780936       -8.6853885531        0.3913550389
  N         9.6625620441       -1.9241106758       13.9238175914
  H         9.4600497833       -0.9352452599       13.5614604311
  H        10.6325470663       -2.1388962624       13.7096606370
  H         9.0738188705       -2.6348420113       13.4571734800
  H         9.5783456078       -2.0560553231       14.9560714075
