     194
 CELL 12.4294 12.4294 12.4294 90.0 90.0 90.0 i =    76020, time =    38010.000, E =     -1097.1270043587
  O        14.0682880879        0.4850772219       12.1276178611
  H        14.3948603654       -0.3374886536       12.5852720531
  H        14.8231286171        1.0803574641       11.9310163242
  O        18.7498631645      -10.2781921098        8.9440084622
  H        17.9954231540       -9.9569012476        9.4998204326
  H        18.6977232155      -11.2912654737        8.8749891276
  O        16.6677611186      -10.5606363687       11.2103344317
  H        16.8874984555      -10.0830963528       12.0704385410
  H        17.0064301930      -11.4661706198       11.1770315947
  O        10.7718692354       -2.6185784706       14.5015683706
  H        10.5442051883       -3.5516896600       14.6647814610
  H         9.8533072886       -2.2450818970       14.2714710296
  O         4.6822416499       -9.6434061068       13.9085328982
  H         4.0652201485       -9.9610404394       14.5992724817
  H         5.6006318914       -9.7914083494       14.1314179823
  O        21.1852234951       -6.3552610855       22.8961722813
  H        21.9090304088       -6.8944464209       22.4877688707
  H        21.4238169327       -5.3188428873       22.7790181557
  O        15.2514165614       -0.3497930875        3.7621047739
  H        15.1461119192        0.6255849875        3.7753404464
  H        16.0960273179       -0.5099188537        3.2343709917
  O        20.7098479042        2.4136764275       10.8490274946
  H        20.1850675200        2.2844149254       10.0379833246
  H        20.0568346912        2.9755057348       11.2696998719
  O        12.2870274093       -6.6878287347        3.0763234883
  H        12.5024294245       -7.5453179786        2.6242947667
  H        11.8084666940       -7.0004516317        3.9188871251
  O        16.2813708597       -2.8377253101        9.1601120391
  H        15.9102878053       -3.3756035346        9.8491407355
  H        16.9107375659       -3.4361356268        8.6686469917
  O        15.9027851745       -8.0507424914        4.5388141102
  H        16.6452320346       -7.6431912619        3.9711112505
  H        16.3534819178       -8.6479326219        5.1890540712
  O        12.5710231768        0.6054847785        9.8536886414
  H        12.1451785736       -0.3185445685        9.9390054183
  H        13.2831174863        0.6373055633       10.5258546095
  O         8.2697195704       -1.3606691533       14.1978279223
  H         7.8403683982       -1.1771502960       15.0888987613
  H         8.5616103360       -0.3990141971       13.8705662661
  O        18.8933015807       -7.8274967009       11.0027192502
  H        19.6480395860       -7.3219697091       10.6826001421
  H        18.6619437320       -7.4388225909       11.8557614489
  O        14.9226717116       -2.1358126577       12.6643330687
  H        14.0635985705       -2.4369282719       12.2709024546
  H        15.0774327903       -2.6952444950       13.4398447963
  O        19.9298800796       -2.0213325671       11.6316464258
  H        20.6259473739       -2.4267524246       11.1282524872
  H        20.2887706154       -1.8714822900       12.5478031115
  O        18.3796431034       -4.2590485595       12.1168559711
  H        17.8284985932       -4.2040983819       12.8922312623
  H        18.9532795532       -3.4639833636       12.0493158237
  O        18.7178216217        1.9095081986       16.5137045315
  H        19.4974962402        2.4351532233       16.7072477721
  H        18.1360550702        1.9469041319       17.3021837691
  O        16.6474732444        5.5130388736        9.2106585041
  H        16.0743941940        4.6780069930        9.0716321816
  H        17.3293866170        5.1307740614        9.7949865081
  O        11.8317251817      -12.0291987085       13.8092321963
  H        12.6687003323      -12.0233030430       13.2199665719
  H        10.9677082017      -11.7312168942       13.3379688434
  O        18.9248211331       -0.9327262160        4.0362290897
  H        18.3682862271       -1.1875526344        4.8278552541
  H        18.8926742868        0.0925003328        4.0673461716
  O        12.9051796438        4.1079401000       11.0976790595
  H        13.5973343192        3.8057346060       10.4753123384
  H        12.0130134727        3.8553419219       10.6722354265
  O        21.5934399068       -1.0426626413       20.2694746179
  H        22.3900340498       -0.9633051071       20.8782404855
  H        21.6878503192       -2.0105894937       19.9620638782
  O        10.0414789234       -3.6538074349        6.7836324607
  H        10.8025560086       -3.0648134878        6.4563274310
  H        10.5237688930       -4.2564953052        7.3815029905
  O        11.8371342343       -1.7069120856        5.8832776548
  H        12.4203811135       -1.5092667046        6.5992068097
  H        11.4063672016       -0.8643027353        5.6047247271
  O        20.6169948249       -6.3447791711       13.0827923646
  H        21.0495418177       -6.5886959383       12.1852984873
  H        19.7636866450       -5.8627765353       12.7962625655
  O        23.3464847948       -9.5691516176        9.7472137579
  H        22.4048577363       -9.7865792093       10.0203217577
  H        23.8468549905      -10.4049443583        9.9295847993
  O        19.8704020800       -3.6323232536       20.4599464185
  H        20.4704132988       -3.5589090896       19.7487767118
  H        19.3729667541       -4.5329989624       20.4572794414
  O        11.5251699436       -5.3867103112        8.5093824665
  H        10.9353702015       -6.1921876558        8.6696915166
  H        12.0341942200       -5.2064532950        9.3396033024
  O        14.9896820037      -10.0804198981       15.6759974732
  H        15.4223223563       -9.2985940859       16.1678891250
  H        14.3663701747       -9.6830910850       15.0312924952
  O        12.3182787371       -3.1241866426       12.1534409195
  H        12.2090851947       -4.0970626333       11.9939286443
  H        11.5578552602       -2.9291998570       12.7468378465
  O        15.7056736268       -0.2411305569       18.9463246756
  H        15.3431044064       -0.4760537103       18.0572982750
  H        14.8953204563        0.0324901261       19.4091967117
  O        15.4203927509       -5.1595977929       11.1127215425
  H        15.8344238739       -5.9096059691       10.5315501349
  H        15.8726458459       -5.3710506113       11.9500515800
  O        13.7760986940       -2.5134479308        8.0800547031
  H        13.6235225988       -3.2845817432        7.6034622255
  H        14.6972675660       -2.3681982282        8.3054812466
  O        26.0816524923        1.7096089764        7.7794103737
  H        25.5657314841        1.9951002460        6.9379266322
  H        25.5082742642        1.2147985350        8.3737801087
  O        20.8619735310        3.6357931186        4.5471011700
  H        20.4609241304        3.9941482780        5.3278345137
  H        21.0842606209        2.7123659133        4.8285472831
  O        20.2142454527       -5.7616502134       16.9151399449
  H        20.9039304164       -5.6562094154       16.1638329915
  H        20.7402391175       -5.4240090235       17.6825720787
  O        22.5218463915       -7.9261112389        7.8147738236
  H        21.5771905455       -8.1225449256        7.8362295456
  H        22.8319434811       -8.7431253355        8.3409795837
  O        18.5056006729       -5.8572318803       20.1168406714
  H        17.8077279548       -6.2664375928       20.7098610687
  H        17.9303602015       -5.6170978921       19.3586766861
  O        19.8193683496       -8.3060624356        7.2696017338
  H        19.3796187810       -9.1808564531        7.5079958626
  H        19.3157022060       -7.4703149350        7.5064901982
  O         9.7126303935       -5.3097770286        2.5248062810
  H        10.5282258912       -5.7877771004        2.4154345513
  H         9.1828438279       -5.4696133490        1.6815420037
  O        17.6606973451       -2.2822561003       18.7135367946
  H        18.2572468424       -2.2215011111       19.5070704932
  H        16.9825736280       -1.6146710745       19.0234436518
  O        17.0364082998       -4.8412022250       17.8784832554
  H        16.0832610616       -5.0726826759       17.7400355040
  H        16.9804904744       -3.8881546787       18.2543550038
  O        12.8422272718        2.4980111453        5.3626012620
  H        13.6002008977        2.8314593090        4.9656747429
  H        12.1301961327        3.2142309439        5.3182529289
  O        17.0850424251       -1.2996135371       14.4614343609
  H        17.8615717867       -1.0919758366       15.0104737540
  H        17.0209915081       -0.8618641450       13.5695048910
  O        21.5465897780        0.9529161181        5.4546244956
  H        22.3593797911        0.6109031448        5.0392604994
  H        21.4784990415        0.3549160155        6.2609144271
  O        18.7350051521       -0.5649446777        8.7610749987
  H        18.3547640147       -0.9710223174        9.5401210962
  H        19.6444245643       -1.0221419273        8.6894407364
  O        17.5030868118       -0.6911699843       11.7779706028
  H        16.9448112244       -1.4780118975       11.7773853393
  H        18.3919142840       -1.0561067443       11.7386737183
  O        11.3162751550        0.5498361924       16.5625073784
  H        11.4311780709        0.4822121760       15.5846949981
  H        11.9098386977        1.3059572953       16.8184119411
  O        11.6806350520       -1.8808701378        9.6795123934
  H        12.4728306675       -2.1122077147        9.0411533540
  H        12.0138796163       -2.2808284592       10.5296503711
  O        25.8394814581       -4.6425432888        6.5946676252
  H        25.9906437649       -5.0504524518        5.7082489868
  H        25.2065921053       -5.1630488360        7.1334075625
  O        12.7435694042       -5.5378198934       10.8097360110
  H        12.8334833773       -6.5213469876       11.0427754667
  H        13.6629652203       -5.1701096500       10.8697526159
  O         9.1443682877       -3.8300172209        9.9880962138
  H         8.4538788923       -3.5217355161        9.2839549449
  H        10.0668095999       -3.6027144415        9.6230835206
  O        15.0300849973        3.1972303810        9.4973008161
  H        14.7067222796        2.5962914517        8.7607136447
  H        15.4100178800        2.6154930604       10.1453900744
  O        16.8946463171        2.1808040221        6.3223900870
  H        16.2565676761        1.4434488862        6.2818288023
  H        17.3749401704        2.0839271813        7.1233992501
  O        17.1431580421       -6.9730529255       12.9502343846
  H        17.3349725708       -6.5610003317       13.8475665653
  H        16.9325400083       -7.9405977691       13.3021403415
  O        14.4982098672       -5.6204846417       16.5790049666
  H        14.9838941050       -6.4707677341       16.8458060141
  H        13.7763677255       -6.0245742642       15.9537159276
  O         5.2836814836       -6.4197979956       15.8954783061
  H         5.0569457943       -5.6615499189       16.5193950318
  H         6.1680761934       -6.7038312738       16.2650837062
  O        21.3663143394        1.1779152266       13.2418890897
  H        21.2348231419        1.3328258923       12.2506921985
  H        21.0431692066        1.9978869260       13.6535349965
  O        15.7941726308       -3.7615464175       14.9163330451
  H        15.4196923330       -4.4526112197       15.5314523776
  H        16.5859198221       -3.1813330168       15.1790017372
  O        23.4150545948       -8.0914452111        5.0547663789
  H        22.4916284584       -8.2494399282        4.6816704099
  H        23.2289946405       -7.9833899531        6.0106072452
  O         7.7421459805       -8.8576143683        1.6743696392
  H         8.0415078577       -8.0157088217        1.3836359319
  H         7.8227549031       -8.8032849276        2.6346719086
  O        12.8939470050       -8.9497967551        1.4850970367
  H        12.4946402862       -9.7769877907        1.1555223600
  H        13.2105926584       -8.5182972494        0.6550405142
  N        13.2299701631       -2.2173079091       16.0795549241
  H        13.5251602587       -1.2266110424       15.8491315221
  H        13.8457182117       -2.8467285226       15.4831226681
  H        12.2894956297       -2.3428571846       15.6733593104
  H        13.1221875913       -2.2407436195       17.1118219013
