     194
 CELL 12.4294 12.4294 12.4294 90.0 90.0 90.0 i =   100820, time =    50410.000, E =     -1097.0878065570
  O        22.1932698354       -2.8195220602       15.8187854997
  H        22.3360999973       -3.5396016397       16.4874836481
  H        21.8624402790       -2.0411500411       16.2073018340
  O        26.3486339193      -11.1526487468       10.5159983865
  H        26.7509258719      -11.2773080859       11.4321349578
  H        26.4744364321      -12.1444348232       10.2234783012
  O        24.4159504216      -12.0592225537       18.4256358863
  H        25.1368065885      -11.5521067462       17.8033058665
  H        24.2600407915      -12.9092699771       17.9025831117
  O        20.4340710023       -3.7291859017       13.8312523708
  H        21.1649239770       -3.3614222943       14.3812758115
  H        20.5872469865       -3.2285048158       13.0192358066
  O        14.1147524415      -10.9510289591       16.8732340157
  H        14.8268437178      -10.8414018911       17.5044380461
  H        14.3846459700      -11.8034260624       16.3764725200
  O        30.9106945183       -9.0790924961       24.8915597690
  H        30.9902074945       -8.0283821275       24.9108950155
  H        30.9183148328       -9.4645496127       23.9699060289
  O        22.7448801940        1.9372358496        7.3087715162
  H        22.2773001888        2.7434491667        6.9926677410
  H        23.2133160395        1.6277541015        6.4434451065
  O        26.9459958866       -0.7181652052       15.4954047667
  H        27.6492078823       -1.0947949397       16.0976225161
  H        26.1716720035       -1.3183304592       15.4916780354
  O        21.6131409134       -6.2638078714        6.7689115025
  H        20.8655169958       -5.6619341481        6.7538883234
  H        21.8597446865       -6.1168704715        7.7168915263
  O        24.4776812898       -4.9389915866       12.4189826035
  H        25.0578761828       -5.7361434607       12.3846917685
  H        25.1834889327       -4.3382490605       12.8348048357
  O        24.2984402239       -7.1409616116        8.8311672590
  H        24.7983736415       -7.0872328370        7.9405766633
  H        24.1998224816       -8.0942813671        9.0894171136
  O        18.8852187491       -2.4509985428       10.4882964012
  H        18.2487565457       -1.6982720365       10.7182359556
  H        19.7457268301       -2.2444657542       10.9604283225
  O        16.8589913459       -1.1727793230       16.8031440437
  H        16.6787210583       -1.2783262290       17.7862005506
  H        17.4570815322       -0.4679063806       16.6760563466
  O        27.8465282210      -12.0021519708       12.7046832242
  H        27.9751984836      -11.1246540253       13.1345115104
  H        27.5286041424      -12.5928484098       13.4183240594
  O        22.6352770474       -5.4733408579       14.5399985721
  H        23.3565479785       -5.2720760602       13.9108068019
  H        21.8015359623       -5.3419218333       13.9554761409
  O        29.9486964321       -2.6860051113       13.6552572991
  H        30.7186933649       -3.2973083100       13.7718133855
  H        29.7890726865       -2.2600641505       14.5163348406
  O        31.1074966414       -6.4987217272       16.8460850571
  H        31.2660073960       -5.7168376318       16.2585484618
  H        31.3620256198       -6.1497058881       17.7191938753
  O        29.1254056234        1.0377830532       19.1438524166
  H        28.7048421442        1.6174754782       19.8402192354
  H        29.4207674759        0.2552037043       19.6304005466
  O        26.3420958558        6.2765438797       10.0847131311
  H        25.4126365436        6.0316449155        9.6427199780
  H        26.3933459704        5.6978366228       10.8810756157
  O        18.7731045221      -11.6234497395       16.0295583352
  H        19.4779304989      -10.8820454795       16.1730933569
  H        18.1317512624      -11.3921956041       15.2684820775
  O        29.1637953467       -1.7907878340        7.1771780294
  H        28.4185305221       -1.7432083428        7.8148180495
  H        29.9411918055       -2.0194775621        7.7609262614
  O        23.4715531750        1.4373613304       14.7896377711
  H        23.0950054247        1.7552256844       13.9418068347
  H        23.7618498693        0.4855497058       14.5945100133
  O        29.9108843868       -4.6791881835       23.3927947450
  H        30.4545568603       -3.8897071026       23.2934085595
  H        29.9132247106       -5.2248635279       22.5661308017
  O        23.7272695007       -4.8975663500        5.5568445858
  H        23.0967231821       -5.4102130128        5.9951169061
  H        24.3623834390       -4.6446159354        6.2910566208
  O        22.4784291393       -2.8876074302        8.1751174915
  H        22.3231327093       -3.5347559940        8.8649392317
  H        21.5690643303       -2.6086852708        7.8932807290
  O        28.4448373595       -7.5551257804       15.9120604869
  H        29.3529152194       -7.4240620929       16.3315199034
  H        28.3567860657       -6.8579083211       15.1930081112
  O        31.8339330747      -12.9193455257       12.9714965603
  H        32.4354006950      -12.8239152652       13.8066268761
  H        31.2574846641      -13.6658628163       13.2096892514
  O        30.1666538711       -6.2909850051       21.4411713002
  H        30.8484648213       -7.0125357481       21.4990683963
  H        29.4171534229       -6.5180023886       20.8684113915
  O        21.2793833240       -6.7366236020       11.3089263765
  H        20.8399007415       -7.2905191633       10.6592662063
  H        21.9966437324       -7.3467399563       11.6348077428
  O        20.0502723530       -8.8280100422       16.3838051530
  H        20.3723920302       -9.1361579714       15.4326255329
  H        19.6684857621       -7.9255510784       16.2994086881
  O        18.7115794868       -6.2965720451       12.7220978734
  H        18.2554154533       -5.7025082242       12.0200785607
  H        19.7076851629       -6.2448730167       12.6092246155
  O        25.1290339772       -3.8469831366       20.0851727986
  H        24.3355479388       -3.7973032882       20.6630513635
  H        24.9533598361       -3.0934603954       19.4763826486
  O        26.4201777808       -7.2190024118       12.6748976438
  H        27.1728157273       -6.7310094517       13.2120647653
  H        26.1488168667       -7.9181653126       13.2691904062
  O        22.7723508470       -4.5020771783       10.3859005870
  H        22.1366140415       -5.2021981709       10.7117622857
  H        23.5113859198       -4.5517859867       11.0680251482
  O        35.8484988727       -0.1992512705       11.1390874716
  H        36.2451691416       -0.2714309082       10.2135489235
  H        35.0091422045        0.2741200459       10.9306683736
  O        31.4648301720        2.6147825570        6.6147596291
  H        30.5742763562        2.1522325021        6.5958335183
  H        31.7224606427        2.8402455200        5.6769267976
  O        31.7441356012       -5.0245052883       19.3537661126
  H        31.1663468300       -5.1391175133       20.1464982329
  H        31.8994639053       -4.0701183973       19.2704067220
  O        30.5360828094      -10.4097890734        9.7510355166
  H        29.6352129506      -10.0428468236        9.5130902117
  H        30.4079373878      -11.1411271042       10.3585819648
  O        27.8913681641       -7.2760684450       20.4364915395
  H        27.4290872975       -6.7127200742       21.0596344184
  H        27.5810758484       -7.1873997645       19.5382973476
  O        28.1744311781       -9.9548533110        8.8385753553
  H        27.3785327133      -10.2726058426        9.2519948165
  H        27.8815538715       -9.0582780699        8.4792017048
  O        19.1384571938       -3.4328087962        4.0669885315
  H        18.3717671775       -2.8067578345        4.1252762543
  H        19.8418372012       -2.8741253341        3.8350360289
  O        26.4393892866       -3.4481899453       25.6083166072
  H        26.0975071242       -2.5506205341       25.8600433542
  H        26.8569109626       -3.3681421716       24.6469215137
  O        27.2083684758       -1.5045566020       21.6933209247
  H        27.2371930584       -2.3493096524       22.1314582634
  H        26.2785801462       -1.3819046927       21.3090366252
  O        20.7077559048        0.6297015513        8.3256407288
  H        21.5567610540        1.0100097626        8.1073602303
  H        20.1273502436        1.0926576649        7.6782267190
  O        24.4120842463       -0.9536905824       20.9745336655
  H        24.2256162112       -0.3735359137       20.1946361467
  H        23.5743028408       -1.4965940289       21.0665337969
  O        31.8215149112       -2.1601247178        7.9071433775
  H        32.1866917302       -1.2563353229        7.6325652233
  H        31.6871643997       -2.1289390900        8.9348210140
  O        27.3441439893       -3.7647885013       10.6525147928
  H        26.9198386993       -4.6713357127       10.3299164613
  H        28.2766062288       -4.0557336608       10.7427847376
  O        24.7649339112       -2.3529446606       16.4122663032
  H        23.8294797705       -2.4719736355       16.0504277288
  H        24.8364975594       -3.0384188124       17.1122105878
  O        20.9481948810       -0.6435906323       17.1848916083
  H        20.2780603197       -0.4084074228       16.4980369473
  H        21.4616099091        0.1296589190       17.4416672770
  O        21.2921650824       -2.3703726387       11.6476412504
  H        21.7707368285       -3.1808459273       11.3284572531
  H        21.9921715937       -1.6377715935       11.3970680613
  O        35.0061559103       -9.5311688425       12.0103927116
  H        35.5231221043       -9.3732430480       11.2008758062
  H        34.3999809512      -10.1700530247       11.6404638609
  O        20.8979482450      -11.6756792898       11.0174587651
  H        20.4298349169      -11.6600002330       10.1564889256
  H        20.1962208254      -12.0405370267       11.6120295741
  O        16.1447703887       -5.6923521037       13.9711499996
  H        16.9994202428       -5.7454409876       13.4918010479
  H        15.7294311442       -4.8213349556       13.7066656989
  O        24.2828129062       -0.8575448953       13.6818443097
  H        24.0493481415       -0.6541100483       12.7580364948
  H        23.6578228150       -1.5951429329       13.8754062814
  O        23.9387689586        2.7229749833        9.6091146051
  H        23.6374200970        2.1873381435        8.8397397922
  H        24.6860515000        2.1585505684        9.9300858686
  O        25.4756055546       -9.1355355107       14.6521268570
  H        24.7839362895       -9.9287718298       14.7333077613
  H        26.0786722230       -9.4248504937       15.3403891892
  O        22.2161793946       -8.5638550118       17.6655545830
  H        21.9762117752       -7.8433805251       18.2486811221
  H        21.3249337458       -8.8182669476       17.2541883428
  O        14.2494871090       -6.4575228700       17.7021445719
  H        14.6598466944       -5.5406305136       17.8674041623
  H        14.8845240842       -6.9902901486       17.1258630538
  O        29.4572308915       -0.5982266749       10.7593110584
  H        28.7780910023       -0.5742666445       10.0809142292
  H        29.0220442789       -0.2961040476       11.5449704136
  O        27.4936687156       -3.9967147388       18.6765370781
  H        27.0778968899       -4.0397120420       19.5846000809
  H        28.3079679231       -3.5230307799       18.7105747247
  O        32.0731497713       -8.2656740213        9.2061836451
  H        32.0110610017       -8.4991277815        8.2387638089
  H        31.6924677305       -9.1343514755        9.5549731453
  O        16.8567883481      -10.0144036735        1.9540650489
  H        17.4792945096       -9.6432502333        1.3053911131
  H        16.5503126097       -9.3437133090        2.6097832517
  O        20.7402963360       -9.8192367213        1.5020385905
  H        21.4758052294       -9.3774615689        0.9751747993
  H        19.9422723952       -9.7798078429        0.8797931733
  N        24.1895973542       -7.1905602477       16.2738088494
  H        24.7999131106       -6.7665917959       16.9526793714
  H        24.6766933499       -7.9321389042       15.7820342427
  H        23.6173997430       -6.5932647667       15.6431056095
  H        23.3777860717       -7.6426283879       16.7788926204
