     194
 CELL 12.4294 12.4294 12.4294 90.0 90.0 90.0 i =    83220, time =    41610.000, E =     -1097.1364115702
  O        16.5678530825        1.1806869399       12.4077378002
  H        17.5697618120        1.3181475785       12.5047034800
  H        16.3807413187        1.9814684240       11.8564993632
  O        21.8318904705      -11.1875865692        9.9447337559
  H        21.0204927936      -11.4504296877       10.4165934478
  H        22.1425194104      -12.0164159242        9.5700056432
  O        19.6914938612      -11.5083820960       12.0945099531
  H        20.1831042498      -11.1611865813       12.8645250763
  H        19.4754642800      -12.4822888879       12.2874559986
  O        14.2607493305       -3.4455640578       13.0791756730
  H        14.0209588658       -3.9116153096       13.9686405446
  H        13.8671756977       -2.5570471254       13.1106859365
  O         8.3464512920       -8.7286153583       13.3077278613
  H         8.6205419008       -8.9766383103       14.2008830613
  H         9.0865894344       -8.8750364813       12.7807941680
  O        25.9359950012       -7.4172644447       24.9586567715
  H        26.8267047591       -6.9595519209       25.0767244030
  H        25.7874920393       -7.2783120548       23.9951965411
  O        18.6564593348       -0.1444686356        2.7329179111
  H        18.2286156354        0.7153721781        2.9618636681
  H        19.5609190416        0.0744206640        2.4595503943
  O        23.1633539650        2.9321095134       11.6125368315
  H        22.6791686036        2.3719878878       10.9699253408
  H        23.6044787827        3.6938478238       11.1035134672
  O        15.1553149742       -6.8220866593        3.6420319889
  H        15.2254432111       -7.2086472295        2.7582805008
  H        14.7315922144       -7.4127445227        4.2530168311
  O        18.6288968884       -2.8150835444       10.1245152023
  H        18.8578669544       -3.7636030151       10.1798233900
  H        19.1473255979       -2.3148756301        9.3896367721
  O        19.8512347168       -8.5576251579        3.8766531969
  H        20.5209438854       -7.8319618899        4.0212920111
  H        20.1908025960       -9.3419303020        4.3012551856
  O        15.3162709494        0.2300603177        9.5364754000
  H        14.7555002874       -0.4269284937        9.0823358215
  H        15.6536370031       -0.2393154041       10.3644130624
  O        11.9587592338       -1.1597743608       13.5141924209
  H        11.4720734602       -1.2818405300       14.3882978600
  H        12.2185817810       -0.1893681466       13.5144301909
  O        22.2253766696       -6.2415554517       11.6324427849
  H        23.0168576756       -5.7987695503       11.1538666959
  H        21.7156982012       -5.5097254520       12.1112758583
  O        16.2890114972       -1.9436416923       11.2318874550
  H        17.0298479271       -2.4144875030       10.8025029634
  H        15.4578341511       -2.4276946720       11.2652387370
  O        22.3532784839       -1.7376966263       11.5976358058
  H        22.6232802625       -2.7432555988       11.6267510597
  H        23.1016408526       -1.4406202427       12.2187116466
  O        21.3103193396       -4.3497035819       13.2927685068
  H        21.7693522790       -4.2804171049       14.1409151381
  H        20.4837522730       -3.8049730127       13.3802643191
  O        21.4040124086        1.0543291853       14.5492190602
  H        21.4191115657        1.6030237122       15.3210025605
  H        22.2625785922        1.2395596680       14.1208684864
  O        20.5899367468        4.8877279440        9.6146067189
  H        20.2333365831        4.0224358521        9.8976767528
  H        21.1643779924        5.2672248613       10.3428088386
  O        14.8754620124      -10.3977977034       14.4611046192
  H        15.4525280358      -10.7849981251       13.7441875992
  H        14.1359523510      -10.1721028032       13.8843117475
  O        23.0826104707       -1.8341726751        3.4480930212
  H        22.0845452230       -1.7511604007        3.6368774260
  H        23.5070138469       -1.2943117974        4.1357678072
  O        16.0989755668        3.9726308736       10.9016146088
  H        16.9952792579        3.7962308903       10.5406366085
  H        15.5039432094        3.1987731044       10.6751154362
  O        24.5504248185       -2.0422950907       19.6247798760
  H        25.3486598916       -2.2983781678       20.1426230243
  H        24.2276182008       -2.8895279166       19.3194390411
  O        15.3329519513       -2.1599375297        3.7360191661
  H        14.8887393604       -1.2974941053        3.8715862297
  H        14.5773406825       -2.8047280633        3.6382297819
  O        17.5099102961       -1.8518482228        5.5619224327
  H        17.3612068301       -2.2582541063        6.5439508043
  H        16.7778845602       -2.1680846871        5.0451129895
  O        23.5894468444       -6.8784112355       13.9111578246
  H        24.5182462809       -7.0573052729       13.5899045834
  H        23.0251684187       -6.8665697580       13.1089853345
  O        26.4997661387      -10.1661210963       10.8189913515
  H        26.0505622716      -10.4139000752       11.7100426509
  H        26.5636603668      -11.0032071101       10.3198957258
  O        23.9992006772       -4.9230445766       19.1185936393
  H        24.8475017781       -5.2927492022       19.3714437135
  H        23.3329644525       -5.5913223178       19.3776792790
  O        13.8520766130       -6.3482036524        7.7851872549
  H        13.4828754686       -6.7007950142        8.6916028655
  H        14.6612897556       -5.8472249262        7.9553765678
  O        17.4022611721       -9.8362118944       15.4798015273
  H        18.1595485024       -9.2025882487       15.5712478263
  H        16.7486426946       -9.3388903803       14.9703789650
  O        13.6704510789       -4.5762371700       10.5044477169
  H        14.4744875828       -5.1612458061       10.4470452817
  H        13.8044324711       -4.1970128553       11.4438023945
  O        19.0772583968        0.2929793095       18.8404848786
  H        18.3785459683       -0.2293375091       18.3384387273
  H        18.6530254051        0.9188665461       19.4271763778
  O        18.6339403801       -5.3259765158       10.7182872661
  H        19.1666180593       -5.8057742911       10.0651589746
  H        18.9362898747       -5.7359989298       11.5738323391
  O        16.5216282280       -3.4425560595        7.8922664739
  H        16.5911652508       -4.4210013628        7.5305742019
  H        17.2455044538       -3.5663909669        8.5884196546
  O        29.6807991080        1.9464104444        8.2288943507
  H        29.4321633716        2.1245052963        7.3232531720
  H        29.1488071087        1.1789870962        8.5343227576
  O        23.6355343268        2.9249851825        5.4383319396
  H        23.4688347795        3.1331161630        6.3771344472
  H        24.0139699574        2.0272943072        5.4708386748
  O        23.6647762398       -4.5682441779       16.1526341696
  H        24.1107678764       -4.8477362706       17.0237163358
  H        23.4503576293       -3.6159640802       16.2018609391
  O        25.0130193811       -8.0723319039        9.6541879541
  H        24.2423962639       -8.3339618369        9.0778470462
  H        25.5614178273       -8.8919304289        9.9497187459
  O        21.5622073760       -6.6491008438       19.3796231017
  H        20.9342645010       -6.6713934938       20.1371814381
  H        21.0781488663       -6.2558462441       18.6393032874
  O        22.8212627735       -8.9704232733        8.1252572486
  H        22.5079573627       -9.6360415954        8.7203259264
  H        22.0976277607       -8.2589596716        8.0602179533
  O        13.9739548600       -4.3256660985        3.0854000087
  H        14.3993412700       -5.1663064249        3.4648912465
  H        13.0075493173       -4.3816017984        3.1928574603
  O        20.0926917701       -1.7511183068       20.4583607193
  H        20.9525622235       -1.5814641625       20.8549435306
  H        19.8072314611       -0.9084703161       19.9668767757
  O        20.3219214999       -3.7997601351       18.5467090819
  H        21.2743248111       -3.8086971618       18.7351106525
  H        20.0701789696       -3.0349773989       19.0764630883
  O        16.1739329782        2.3251062430        5.7201437817
  H        16.6243756497        2.7523625056        4.9540140311
  H        15.3934471515        2.7893601198        5.9694878123
  O        20.2179993611       -2.6304752303       16.1977172383
  H        19.9450267736       -2.8527041193       17.1152885365
  H        19.6921267402       -1.8371574015       15.9715113331
  O        24.2099352166        0.0835962808        5.3745202205
  H        25.2122499749        0.1774594288        5.0657398925
  H        24.2223026878       -0.4749772686        6.1874272272
  O        22.5977859852       -1.2798334166        9.0138852566
  H        22.9126506234       -1.5789854624        9.9480779182
  H        23.1865543400       -1.5438807317        8.2624171893
  O        19.8134719612       -1.7092937112       12.4218922722
  H        19.5809271038       -2.0812445360       11.5273554621
  H        20.7913819199       -1.5082546384       12.2996482358
  O        14.4708871351        0.4872988716       16.6978620835
  H        14.4836070011        1.1260774328       15.8940171484
  H        15.1969723920        0.8308921660       17.2718056330
  O        14.2294804805       -2.3459128040        8.7469647652
  H        15.0836218141       -2.6269727507        8.4149516530
  H        13.9590197535       -3.1727882062        9.2231811052
  O        29.2844202882       -5.6715464883        6.7396262730
  H        29.7480665839       -5.7637092173        5.9173943875
  H        28.9846672483       -6.5325315612        7.0926352449
  O        15.8209112167       -6.1373713999        9.7466123546
  H        15.7861993262       -7.0717922242       10.0321412240
  H        16.6068245195       -5.7401943390       10.2680577435
  O        11.1093337240       -4.4959994872        9.9630021598
  H        10.9973554480       -4.4948304954        8.9992613530
  H        12.1256286877       -4.5730937173       10.0180025713
  O        18.6570856592        2.9198542153       10.1834842078
  H        18.2346343408        2.4652240907        9.4464821595
  H        18.9729795526        2.3106523334       10.8849845158
  O        21.0690902635        1.5768315534        4.9396239620
  H        20.4870135641        1.1032170377        5.6031288370
  H        22.0061249801        1.4997043756        5.2565233367
  O        18.9828474220       -6.5326461017       13.2166220203
  H        19.2647850360       -5.7608042563       13.7410235517
  H        19.6379949413       -7.2683876742       13.3476180124
  O        17.8528451151       -6.4819816222       16.7770789368
  H        18.4277723713       -7.2615866730       16.8220411814
  H        16.9331538958       -6.7280974213       16.5793598109
  O         8.8209963819       -6.1348072715       16.6133097737
  H         8.2250107897       -5.5210325276       16.1671005983
  H         9.7434823458       -5.8927394279       16.3409807044
  O        24.5998251139        1.5359416939       13.3545516597
  H        24.0253027860        2.2085441720       12.7584122797
  H        24.4953623413        2.0702814941       14.2024794341
  O        18.5227073087       -4.4547268477       14.8213123445
  H        18.1651494839       -5.1373488913       15.5209252572
  H        19.2737438568       -3.9371118252       15.2463491452
  O        26.1881691584       -8.1086222081        5.6930793738
  H        25.2750017395       -8.3882268407        5.4977080461
  H        26.1605088873       -7.3809346845        6.3191342942
  O        10.4631378013       -9.0559092917        2.8522829103
  H        10.7310477193       -8.1923443776        2.4492074391
  H        10.5895796798       -9.0137306242        3.8003817937
  O        16.2234420984       -7.1669454632        1.2212444244
  H        16.1504038516       -7.8555666242        0.5085529268
  H        17.2097914712       -6.8937725039        1.0229574989
  N        17.2714339059       -2.1299504054       13.8989046175
  H        16.6627852655       -2.2976397640       14.6802782241
  H        16.6759540402       -1.7171086040       13.0979155545
  H        17.6721075446       -3.0333810334       13.6179759274
  H        18.0147634323       -1.4912566429       14.0973993726
