     194
 CELL 12.4294 12.4294 12.4294 90.0 90.0 90.0 i =    56020, time =    28010.000, E =     -1097.1361614402
  O         4.1370233943        1.4660076367       12.1311858004
  H         3.7566183258        0.9893609384       11.3499498119
  H         5.0964238701        1.3331795938       12.0390143668
  O         9.0989330962       -9.3234448620        9.0000313305
  H         8.2978835442       -8.7544460324        9.1554213455
  H         8.8176588573      -10.2686219528        8.8561337699
  O         7.1908981691      -11.0686078495       11.2364057719
  H         7.8455548618      -10.3947412798       11.5607446088
  H         7.6158407208      -11.9609143037       10.9857010132
  O         1.9541697478       -1.8315311164       11.8990054798
  H         1.6253576775       -2.7374457491       12.3569358594
  H         1.1064729622       -1.2430274103       11.9123801140
  O        -3.8851091823       -9.1913843917       12.7922040138
  H        -3.8787452414       -9.5453899904       13.7482959721
  H        -2.9952764058       -8.7353456227       12.6290584417
  O         8.4644871779       -4.1130512346       20.6219273705
  H         8.6192304155       -4.5456876948       19.7587858741
  H         9.4168975951       -3.7911350201       20.8315613526
  O         6.5326160623        0.7527118050        1.4075249754
  H         6.4984481622        1.5820428467        1.9247973100
  H         6.8578849897        0.9678321871        0.5306930622
  O        10.6340541699        4.3823294941       11.1980054052
  H        10.2760471906        4.1017531322       10.3617588258
  H        10.9891478417        5.3289348030       11.0693108542
  O         3.9459354350       -5.2368838627        2.7423488657
  H         3.7184431869       -6.2352584365        2.5998180992
  H         4.1927678734       -5.0042940349        3.6914857709
  O         7.1899982649       -1.7542342317        7.7444790842
  H         6.4006483048       -2.0637721799        8.3711190704
  H         7.8746248814       -2.4111489819        7.8981720775
  O         8.0667176590       -7.5222099154        2.8302966466
  H         8.8808758521       -7.5287397001        2.2692244870
  H         8.0123753120       -6.6830664780        3.3209218465
  O         3.5104761238        3.4209548940        8.4906321622
  H         3.7096488246        3.8425598730        7.6092949333
  H         2.7652041843        2.8080915347        8.2345754203
  O        -0.2150325657       -0.1459294496       12.1214812331
  H        -0.8380820428       -0.2193450694       12.9039457146
  H        -0.0183812933        0.8052238299       12.0748387400
  O         7.4431652254       -6.5821197413        9.0080542502
  H         7.8918204179       -5.7104274970        8.9725441352
  H         7.2832370203       -6.8276896491        9.9704860586
  O         5.1921109932       -2.0406822527        9.2911661989
  H         4.5000842275       -2.8084918265        9.1895403932
  H         5.2838207420       -2.1150242045       10.2467856869
  O        10.6731132018       -1.0957784263       10.0823860110
  H        11.2028903803       -1.9205982100        9.8210606126
  H        11.2444664618       -0.6728048549       10.7869794670
  O         9.0095773171       -4.5015316073       11.4260841783
  H         8.5995364830       -5.3781855945       11.4201819259
  H         8.9192612760       -4.1364367313       12.3770134147
  O         9.0109853958        2.0789654371       15.0574712680
  H         9.9050633249        2.3252756196       15.1860488595
  H         8.6304585260        2.3281669623       15.9163538702
  O         8.3053907721        5.0016582041        6.2969960015
  H         8.5005638471        4.1005903132        5.8757467102
  H         7.7263483043        4.8369100682        7.0510601000
  O         2.0176510324       -8.6951744114       12.3826186334
  H         2.6759231911       -9.3264526843       12.1750992785
  H         1.1301178493       -9.1751345698       12.6524432240
  O        10.2805525671       -0.1841099697        1.6152579087
  H        10.5577856346       -0.6605119386        2.4568732263
  H         9.7196429561        0.5747798923        2.0049429005
  O         3.2066689619        7.0519401761       11.4577527422
  H         4.1002463130        7.1879557794       11.8487600477
  H         3.2329781005        6.1933731649       10.9304259930
  O        12.4347837497       -0.4571611232       19.4822035826
  H        12.2930237384       -0.9609482477       20.3326058655
  H        12.7320544786       -1.0807441394       18.7482093046
  O         0.8689741537       -2.0866640338        5.1997439809
  H         1.7795266685       -1.7511804260        4.9155355790
  H         1.0830186987       -2.9666770002        5.6392561720
  O         3.7779923389       -1.0718216021        4.3362198940
  H         4.6282836162       -1.4767825060        4.8096113520
  H         3.9773032418       -0.0886514973        4.4035234034
  O        11.6318787088       -5.5310275709       11.4894737174
  H        12.0494869038       -5.3909623605       10.5664108178
  H        10.6942478957       -5.1033699235       11.3299446720
  O        14.5257533767       -7.1751144131       10.0621619272
  H        14.1544696472       -7.7856458291       10.7589047384
  H        15.0150491025       -7.8677199697        9.4729259093
  O        10.7450326699       -3.6332969833       17.5119761019
  H         9.8928199894       -4.1204427761       17.7796695584
  H        10.4349605876       -2.8456479029       17.0370801541
  O         1.8696959933       -4.2971216502        6.5227827121
  H         1.5177927554       -5.1615992681        6.1559587132
  H         1.9075162825       -4.3949589393        7.4793436819
  O         5.9712310918       -9.3066226885       15.1963262613
  H         6.7556457304       -8.7265553590       15.2514443829
  H         5.2966178901       -8.6869883637       14.8389331270
  O         1.3410713494       -1.5818834569        9.1595015041
  H         1.6949528281       -2.3361438802        8.6864463576
  H         1.6095326754       -1.8665828085       10.0741797181
  O         7.0020691843       -1.8436031413       15.2717158941
  H         6.8978017113       -1.0415197410       14.7490936088
  H         6.4660415212       -1.6994210214       16.0752296115
  O         4.8616065420       -6.0479432559        7.6735757048
  H         4.6884057117       -6.9744607673        7.4515618251
  H         5.6563803483       -6.0216627915        8.2377735042
  O         6.1523327476       -2.3709818706        5.4808234786
  H         5.5566513534       -3.1848366316        5.4910097431
  H         6.6455472742       -2.2381048643        6.3576882141
  O        18.9598261155        1.3402320726        6.4422992338
  H        18.9160845747        1.8322474977        7.3641466996
  H        18.8968286789        0.3886460031        6.5382857699
  O        12.7912576978        3.6755506459        5.8244454572
  H        12.0516976294        3.9725131943        6.5121322561
  H        13.3836434667        3.0375450640        6.3072720403
  O        12.0448711582       -5.2923242461       15.6850885280
  H        12.6655325521       -4.8030298639       15.0142044405
  H        11.7699383576       -4.5633389169       16.3320679474
  O        12.5446717484       -5.5896936727        9.0018617482
  H        11.9485229881       -6.2768465062        8.5822772492
  H        13.3298606695       -6.0306984603        9.3722868641
  O         8.1203493437       -5.0706638020       17.3660960870
  H         8.1652753510       -5.8691695924       17.9412368640
  H         7.3772987844       -4.6039978964       17.7588654542
  O        10.9803799790       -7.6341162684        7.7793427226
  H        10.7375040221       -8.3834789890        8.3050622214
  H        10.1716049068       -7.3041649083        7.3322290901
  O         1.3511345829       -4.2474152451        1.1287860177
  H         2.3259213079       -4.2933592100        1.3774955944
  H         1.2545389554       -4.9210290307        0.4041096066
  O         9.7519804245       -1.2377580623       16.7679188706
  H         9.7598958874       -0.5497723828       17.5477787136
  H         8.8504442941       -1.3569150807       16.3725845417
  O         8.7563208572       -3.6641504282       14.1894096659
  H         9.1500328939       -4.1190482271       14.9647655502
  H         8.2463357048       -2.9959548673       14.6540163031
  O         3.7615421596        4.5260172767        5.9373269590
  H         2.9900719499        4.9813957313        5.4572794130
  H         3.8237472729        3.6588627459        5.5715034513
  O         8.5640326391       -1.6391032552       12.0537869133
  H         8.9807771360       -1.0755667168       12.7654235193
  H         9.1703427501       -1.4318829104       11.3028525672
  O        14.0024161026        1.7243876086        6.9816188351
  H        14.6263172104        1.4159509408        6.3532456642
  H        13.4922733339        0.9498415295        7.2680739505
  O        10.0822839731        0.6658146773        6.2640375003
  H         9.5150167311        0.3882351588        7.1006818980
  H        10.9639965197        0.3076682870        6.3845870938
  O         8.7183200997        0.3776094417        8.6206010641
  H         8.1280024237       -0.4032774220        8.3676104866
  H         9.4847442184       -0.1419066527        8.9626966504
  O         4.4942925063        2.1180196405       17.3643347151
  H         4.9114377789        2.5961347537       16.5552477426
  H         5.2336790448        1.9011901733       17.9593837195
  O         3.4071197884        0.2956702832        9.7288887464
  H         4.0058003848       -0.4673810218        9.7564149867
  H         2.5606101495       -0.0976039064        9.3643307906
  O        16.6878933396       -4.5025665277        5.4681309682
  H        17.0963344327       -5.2372345444        5.9483445738
  H        15.8244539017       -4.2969307541        5.9197572430
  O         3.2880804225       -4.0538153023        8.9390996363
  H         3.1651208059       -4.5747934290        9.7885220850
  H         3.7184119523       -4.7544474691        8.3933741155
  O        -1.3144501139       -3.3243462990        8.0423582274
  H        -1.2230276637       -3.1922133230        7.0846641121
  H        -0.6260369629       -3.9954333651        8.2279952287
  O         6.1265529597        2.6850066981        8.6848571515
  H         5.1597898694        2.7309276270        8.8307257838
  H         6.4488078029        2.0207699544        9.3868955745
  O         8.5896139454        2.5568772057        5.2336149833
  H         7.8974735682        1.9250221370        5.5671271133
  H         9.3897647451        2.0039046041        5.5592000533
  O         7.2335124871       -6.8080529263       11.8760938816
  H         6.9234000372       -6.0488019707       12.3812535776
  H         7.6931298089       -7.5319704220       12.3583558920
  O         6.2220738319       -4.6797467423       13.3886177264
  H         7.0301671919       -4.3201944616       13.8584369134
  H         5.5754138256       -4.8950022335       14.1173142741
  O        -1.7139252254       -6.9996808908       14.2610899680
  H        -1.3193932579       -6.8322708768       13.3642283310
  H        -1.3430332330       -6.1838081762       14.7236165592
  O        12.1383962555        2.7970891585       12.7111054497
  H        11.3762996442        3.2108767851       12.2050923391
  H        12.0726266478        2.7794427219       13.7117204176
  O         5.9028467317       -2.2629611433       12.0025797542
  H         6.0028078382       -3.1620848834       12.2937978931
  H         6.7903734069       -1.8508249715       11.9381919713
  O        13.9300433075       -6.5782159373        5.1322949604
  H        13.4236953132       -7.3841361399        5.4534088631
  H        13.3772076181       -6.2291283340        4.3325421587
  O        -0.6594642241       -8.9750632405        3.1559277414
  H        -1.0848390423       -8.0901917280        2.8832601407
  H        -0.3673558940       -9.0395167553        4.1295132457
  O         3.8681146263       -7.7714747138        1.6113414365
  H         3.0190814829       -8.1049414339        1.1731948977
  H         4.4067348325       -7.4879540739        0.8180820136
  N         3.9335594412       -1.1665984087       13.7654734223
  H         4.2205791491       -0.1922829161       13.5319785414
  H         4.5688676176       -1.7379987712       13.0473192892
  H         2.9748817426       -1.3550137157       13.4477727069
  H         4.1630710019       -1.3471249737       14.7647191381
