     194
 CELL 12.4294 12.4294 12.4294 90.0 90.0 90.0 i =    90020, time =    45010.000, E =     -1097.1076580774
  O        18.9264782016        0.3543694803       13.2646220076
  H        18.8303692342       -0.6569202512       13.3150660134
  H        19.9010737907        0.3993322910       13.1267384582
  O        23.6901577855      -10.7760897067        9.1826307068
  H        23.1541976115      -10.7865003871       10.0040289165
  H        24.4721349472      -11.3665172955        9.2946230240
  O        22.7277620248      -12.7715353575       13.3435621084
  H        22.1725632646      -12.7010474656       14.1288776726
  H        22.9678232255      -13.7350444470       13.1905592304
  O        15.9401430320       -3.1241031436       14.3090423369
  H        16.1009103041       -3.6115199333       15.1510244557
  H        15.6308553987       -2.2151908677       14.4974774683
  O        10.4161318313      -10.2982044473       15.7779531041
  H        10.9052418817      -10.4943339021       16.6413295694
  H        11.1871030814      -10.3166534150       15.0980373913
  O        28.7280047612       -7.3132905543       24.5930048768
  H        28.7475919547       -6.3177717009       24.4572700176
  H        27.8776979458       -7.7210632175       24.2415383233
  O        21.2255798049       -0.0801057251        3.1561310407
  H        20.2453594860        0.0094383001        3.0894333154
  H        21.5646535658        0.8416744275        3.3835415458
  O        24.9897055469        1.3572837756       13.6898853728
  H        25.7414269294        0.9308952628       14.2243461102
  H        24.2684434415        0.6257956236       13.5654923920
  O        16.8842715990       -6.9371293325        4.7405636560
  H        16.3627575306       -7.1701861872        3.9334195570
  H        16.8296087832       -7.7139080421        5.3571865239
  O        21.2624337465       -3.9140000731       11.6034606157
  H        21.7439563303       -4.8211517332       11.4344749762
  H        22.0758412328       -3.3595255045       11.5481482208
  O        21.4418297250       -8.8375007941        6.2416714492
  H        21.9381972187       -8.5741191816        5.4463945221
  H        21.9396215790       -9.6891864490        6.5151947287
  O        17.3420799769       -0.6773271756        9.0961810217
  H        17.2636088570        0.0556839934        9.7039572461
  H        17.3718461982       -1.4191609806        9.7889201242
  O        14.8904108373       -0.1922577430       14.7026949836
  H        14.5910255435       -0.4201684737       15.6412987312
  H        15.6257972806        0.4948567346       14.7790709921
  O        24.1789000112       -8.2691977497       12.9321254907
  H        24.7774016035       -8.3125736853       12.1201947321
  H        24.1018796365       -9.1806361827       13.2440108738
  O        19.0121198648       -2.3245429105       12.9076807200
  H        19.7282277329       -2.9063972789       12.6432591376
  H        18.2854647531       -2.4196103897       12.2445629603
  O        26.1769223584       -1.8273911470       12.6071331673
  H        26.8997938503       -1.7385039583       11.8950450514
  H        26.4804814090       -1.1174199549       13.2845881115
  O        24.9027101335       -4.1298823341       14.5537942776
  H        25.3968816829       -3.5957695922       13.8578155143
  H        25.3514099122       -3.8899964894       15.3934759664
  O        24.8120460715        1.4623217860       17.7599302349
  H        24.0735585866        1.4501436800       18.5010864053
  H        25.5771410600        1.8152588553       18.2908711712
  O        22.3395436088        5.7186196697        8.2603441564
  H        22.0459837524        4.9232796319        7.7785999234
  H        22.0945338779        5.6627013981        9.1850872487
  O        16.7150421786      -10.6640089271       14.4961384826
  H        17.4377973542      -10.9327334339       13.8626471179
  H        16.5128408351       -9.6610511584       14.5002391300
  O        26.4296894575       -0.9211040981        4.5885807787
  H        25.6627432024       -0.2985442056        4.7200324782
  H        27.0031152436       -0.7028617655        5.3717055531
  O        20.4934517626        3.1491731735       12.6112109203
  H        20.9226265874        3.9112681440       13.0941708320
  H        21.1757020945        2.5178605602       12.1355931669
  O        27.0006941645       -2.2854273876       22.0933886023
  H        27.8070423264       -1.9567604067       21.6715273485
  H        26.7650990671       -3.0633444771       21.4827983804
  O        18.3854654667       -2.1432515183        4.3981952026
  H        18.2504866944       -1.1461133824        4.1752555707
  H        17.4876334632       -2.5978654204        4.3320985868
  O        19.8438241396       -3.1406553646        6.4536329278
  H        19.6370472516       -2.9717482556        7.3578783749
  H        19.1555992722       -2.7008649992        5.9707935028
  O        25.0864811458       -6.8183419515       14.9517696353
  H        25.1429883473       -5.8754605482       14.6377935222
  H        24.6702002739       -7.2046102694       14.1450437574
  O        29.6492193739      -11.3736022512       11.1663703536
  H        29.8912041708      -10.4296118878       11.2200168709
  H        30.3817516416      -11.7576930178       11.7071563461
  O        26.7091491993       -5.1361314009       20.7672920585
  H        27.6090853611       -5.5623447147       20.9840777889
  H        26.0955567445       -5.6910511756       20.3229286605
  O        16.5816974987       -5.9271171981        9.1203572696
  H        16.8062539847       -6.5902232715        9.8448796285
  H        17.4903581252       -5.9953969751        8.6119200917
  O        19.5468636954       -9.7395716084       15.7835504422
  H        20.1238416355       -9.7465361838       14.9320313804
  H        18.7026166003       -9.2672018408       15.6122620698
  O        15.5712397651       -4.4615939983       12.0219901440
  H        14.6347337881       -4.6910458517       11.8752450120
  H        15.6132418528       -4.0570077377       12.9519002546
  O        21.7399638614       -1.9554890955       21.2127427228
  H        21.0658670198       -2.6419682927       21.1082861406
  H        21.1966567787       -1.0795751567       21.3839961378
  O        22.8278060561       -6.1710030571       11.0716759366
  H        23.7307092108       -5.8792490474       10.9807961551
  H        22.8610677358       -7.0494695230       11.5056177492
  O        19.4440246833       -3.8264723309        9.3032731470
  H        19.4101041045       -4.7612297294        9.0008465028
  H        20.0680577212       -3.7892632986       10.1468553680
  O        32.3669712271        0.2839844799        9.0613783861
  H        32.1696714137        0.6208620756        8.1958931040
  H        31.5605765308       -0.2457939081        9.2140973865
  O        26.9608053050        2.1157914666        6.8232884629
  H        26.4169469308        2.4703210309        7.6286524988
  H        27.3926860060        1.2684159018        7.1002127638
  O        25.9283704042       -3.9276587877       17.3082861131
  H        25.3322249762       -4.3404627594       17.9588526009
  H        25.9917236124       -2.9459342839       17.6059933057
  O        26.4555963973       -8.5824080564       11.4330347924
  H        26.2302024954       -8.3803725228       10.4705610718
  H        26.5653580264       -9.5738580719       11.4128140032
  O        24.6985851006       -6.4253331381       19.5609828861
  H        23.8578154909       -6.3551218181       20.0391222431
  H        24.4884805989       -6.7327654747       18.6843421851
  O        25.4576241265       -8.8084196700        8.6138927383
  H        24.5989890319       -9.1663846667        8.7400922507
  H        25.2939248375       -7.9838264301        8.0433771167
  O        16.3768129457       -4.2606343950        4.2704827983
  H        16.7353781540       -5.2155915772        4.3683299254
  H        15.4609238203       -4.3740196579        4.6137666759
  O        23.8446893061       -2.4965660095       24.0280676652
  H        24.7552143019       -2.3472316387       24.3905517096
  H        23.7508819054       -1.8729378826       23.2663729219
  O        24.1584070141       -2.6605010258       19.1341482932
  H        24.0242816883       -2.7027606140       20.1081427902
  H        23.5661657332       -1.9083371433       18.8382257546
  O        18.9768829838        2.2154668309        6.4414111471
  H        19.6995474489        2.7265420128        6.0052208962
  H        18.3446462658        2.9617495489        6.7297252075
  O        21.8097102932       -1.2434109785       18.0990286841
  H        21.5698166691       -1.0035354569       17.1420820221
  H        21.2605115455       -1.9329041862       18.5453891255
  O        28.2098164410       -0.3883068294        6.5715695009
  H        28.9050833606        0.0246927741        5.9921939501
  H        28.7455948570       -0.7217638451        7.3578254166
  O        26.1573929796        0.4016372762        9.2040968519
  H        26.3787355390        0.7507245732       10.0851117995
  H        26.1792159225       -0.6005291144        9.2283701156
  O        22.2948886979       -3.4044227181       14.2426229383
  H        22.1644266049       -3.7595616792       13.3673699424
  H        23.1741942359       -3.7214572357       14.4595258371
  O        17.6803551183        0.4877213390       16.9598980042
  H        17.3310057943        0.8914849963       16.1343889439
  H        18.1965104132        1.2507860486       17.3936303938
  O        17.3151977432       -2.7834805641       10.7337643434
  H        17.8794207546       -3.4721655709       10.3267144937
  H        16.4295656943       -3.2886854901       10.7432133731
  O        31.3143966935       -6.2075865242        8.0468466123
  H        31.5549477903       -6.1175743635        7.0747055085
  H        31.6121996466       -7.1659204682        8.2308122496
  O        19.9447927718       -8.3148151634        8.9741542341
  H        20.0014414367       -9.0769948482        8.3511538717
  H        19.4278214410       -8.6180374830        9.8412658247
  O        12.9101272339       -5.1514888365       10.7967654788
  H        13.3843725309       -5.3070220267        9.9651843079
  H        12.7092169323       -4.1911553879       10.7092933054
  O        21.6758236993        1.2016922704       11.2925224765
  H        20.9503122428        1.1310685075       10.6272477308
  H        21.7891709333        0.3293781361       11.7212525201
  O        22.5630214830        1.1979354975        6.7669383718
  H        22.1895803781        0.3359247719        6.5566288153
  H        22.7439074315        1.1932528102        7.7063064831
  O        21.6045264100       -7.5945991446       14.8395698657
  H        22.1009017899       -6.8043331903       14.6083836739
  H        22.2351741078       -8.0862886409       15.4910364396
  O        19.5198362068       -6.4296344347       17.2391806385
  H        20.1928257266       -7.0976061372       16.8858045749
  H        18.6500972532       -6.7915368815       17.0877078109
  O        11.1075083910       -7.0601595033       17.2240631478
  H        10.5379573599       -6.3185228663       17.1338521361
  H        11.7271144666       -6.9718981489       16.3953314759
  O        26.9983080540        1.2841623168       11.6297695544
  H        26.5655488409        1.0721372519       12.4632089554
  H        27.9749252549        1.0862711348       11.6067737752
  O        22.2977216114       -4.5477301226       17.6969771897
  H        21.5397647252       -4.4697095397       18.3618134360
  H        23.0491476644       -3.9688791080       18.1663626559
  O        29.0862344967       -8.6015048176        6.8917017196
  H        28.2826785069       -9.2735353301        6.8970446503
  H        29.0437496837       -8.0519964256        7.6567237007
  O        15.6083060065       -7.9549637518        2.2572343856
  H        15.7119859697       -7.2852205778        1.5355611507
  H        14.6501171406       -7.9390441644        2.4430797033
  O        18.1369285532       -9.0194636428       -1.2657525749
  H        18.7616805200       -9.0161578392       -0.5161011780
  H        17.4588103937       -8.3671067857       -0.8589956471
  N        20.1690780603       -4.1728455897       15.6951382428
  H        19.6602742689       -3.2855313790       16.0665550633
  H        19.5704364443       -4.6134001579       14.9269437859
  H        20.1463829253       -4.9016618063       16.3719060807
  H        21.0674492888       -3.9728505769       15.2212633823
