     194
 CELL 12.4294 12.4294 12.4294 90.0 90.0 90.0 i =    97220, time =    48610.000, E =     -1097.1060817112
  O        21.0303638507       -0.9410008051       14.4465869435
  H        21.2709222027       -1.8172891703       14.8450426096
  H        20.5142712783       -0.4743116144       15.2035281789
  O        26.2589446558      -11.4409700231        9.8190649414
  H        26.4939330140      -11.3756606834       10.7970541703
  H        26.2669163633      -12.4087996899        9.5094023903
  O        22.8381719004      -13.2014710545       16.7549363020
  H        22.6444924060      -12.2964515585       16.3778411742
  H        23.4478088709      -13.7695296976       16.2522374544
  O        19.0455729785       -3.8613345102       14.5947987444
  H        19.2315333777       -4.2436939209       15.4693128394
  H        18.7909202761       -2.9204798069       14.7226853866
  O        12.1015483705      -10.2781498256       17.5024789468
  H        12.9619835111      -10.5373991693       18.0526535640
  H        12.3710410618      -10.6846100681       16.5969648942
  O        31.5215343109       -7.6598447185       24.7840896200
  H        30.7869537233       -7.0610689720       25.1635048654
  H        30.9010315664       -8.3272483444       24.3215555301
  O        21.5202939121        1.8319876633        5.6888323542
  H        20.9205033193        2.5504408681        5.5142198506
  H        22.4610574088        2.0441843531        5.4760628722
  O        25.6976325197        0.3644140752       15.1166802576
  H        26.3372584434       -0.1370907244       15.6410505932
  H        24.9042563439       -0.1891709195       14.8796369816
  O        19.1783847212       -5.8835765750        4.6398491372
  H        18.2856298372       -5.5039562338        4.3835945764
  H        19.0565865603       -6.3207556821        5.4562484194
  O        23.3394846192       -4.4696793633       12.3134496382
  H        23.6241554381       -5.4105235195       12.3864352445
  H        24.1635758379       -3.9035986351       12.4165887310
  O        23.8088148776       -8.1474322343        7.6967988612
  H        24.5437627541       -8.1476946493        7.0097163080
  H        23.9778312445       -8.9951373665        8.1053255101
  O        18.3237578992       -1.6710201424       10.1818136205
  H        17.8288125349       -1.0482883371       10.7509489268
  H        19.1663526078       -1.8141195617       10.5559038009
  O        15.8878947968       -0.4208869072       15.9185683593
  H        15.6813631634       -0.8215793727       16.7646052974
  H        16.2900333324        0.4414287541       16.0143347808
  O        26.8345851120      -10.7185635929       12.7460710289
  H        27.5208211731      -10.0743667456       13.1185224752
  H        26.3529058196      -11.1918381979       13.5153577888
  O        21.6842455338       -4.1038412239       14.3522918362
  H        22.2392644814       -4.2955743615       13.5045402610
  H        20.6972484663       -4.0986256640       14.1854387658
  O        30.1714634770       -1.4515547738       14.2614225719
  H        29.5267310393       -1.6246161190       13.5524393693
  H        29.6521349218       -1.1909541369       15.0753185676
  O        29.0545172840       -5.2862183950       16.0921604681
  H        29.0333180609       -4.7369682196       15.2493407121
  H        28.5755602316       -4.9807264746       16.9333254948
  O        27.0860576586        1.6084054402       18.2549593481
  H        27.2775567192        2.0020649982       19.1533366311
  H        27.2952947582        0.6515295640       18.3117817140
  O        24.7654939421        6.5431534481        9.5482214036
  H        24.1849099109        6.0426588381        8.9618768358
  H        24.7493555928        6.1108405969       10.4096163551
  O        16.8897227291      -10.4429270942       16.7136647052
  H        15.9606067119      -10.4814019660       17.0351824349
  H        16.9080781173       -9.7941442629       15.8711939870
  O        27.7719379839       -1.0721682128        6.1898458181
  H        27.1256447070       -1.2470572047        6.9249257379
  H        28.5963247868       -0.9526301311        6.6400945490
  O        23.4257737313        2.6969453928       13.0825103803
  H        23.0235484811        2.8818663961       12.2197896499
  H        23.7552856243        1.7427835163       12.9825091037
  O        29.1195221145       -4.3327674743       23.0693248192
  H        29.8325095921       -3.6459192761       22.9928909106
  H        29.1023456467       -4.7708710108       22.1920424844
  O        21.6443346980       -3.1977165193        5.1005356755
  H        22.0873489566       -2.3292582799        5.0277635727
  H        20.6625717318       -2.9051167501        5.1105427523
  O        22.6630031972       -3.5311124252        7.5397474976
  H        22.2741555414       -3.9785781397        8.3142910141
  H        22.0508192233       -3.6411379640        6.8383361567
  O        26.6671022466       -7.2804855315       15.7749385337
  H        27.3842185190       -6.6097881428       15.7891738775
  H        26.0882632627       -6.8358724187       15.1434387900
  O        32.0809362589      -12.0672369279       12.5103074289
  H        32.3682133310      -11.2613706686       12.9753881329
  H        32.3805529309      -12.7548314420       13.1378615539
  O        28.8803545749       -5.4043079755       20.4789682787
  H        29.6808937369       -5.9534117580       20.3528791363
  H        28.0871270240       -6.1021805583       20.4291910339
  O        20.5954333639       -7.1908423157        9.9813600085
  H        20.0227035736       -7.1970061825       10.7772567459
  H        21.3413123435       -7.8994786655       10.2139680621
  O        19.7024654614       -8.7581446803       16.3781352357
  H        19.8590004483       -9.0629339778       15.4227557660
  H        19.3556291539       -7.8661355912       16.2781773208
  O        17.0395347175       -5.8068223657       12.8725033470
  H        16.9071992842       -5.4490105500       11.9460679281
  H        17.7177485206       -5.1352711274       13.1908021733
  O        25.2311611921       -3.3402029295       22.3202993258
  H        24.9311533668       -4.1915578211       22.0173115836
  H        24.3861395872       -2.9321293215       22.7037513056
  O        24.5357228577       -6.8707391641       12.1655236752
  H        25.3390355359       -6.5598904832       12.7214622450
  H        24.4518019012       -7.8214157164       12.2076561461
  O        21.7637248100       -4.8832919612        9.9238790035
  H        21.2886290017       -5.7455742961        9.9572492188
  H        22.3716998605       -4.9809438652       10.7196317584
  O        35.5487938471       -1.5244006951       10.4101397596
  H        35.3422262350       -0.5979143728       10.2925715356
  H        34.6477782290       -1.7950847368       10.8109740200
  O        30.2860820989        2.5757139868        6.7829713159
  H        29.3960085023        2.3978380966        7.2089335171
  H        30.2113343188        2.4720075884        5.8006093222
  O        27.8677764734       -4.0178302917       18.4231426599
  H        28.2937710419       -4.3954216018       19.2544148119
  H        28.0977293296       -3.0543416692       18.4089979047
  O        29.5267485792       -9.0832010886       11.0145568299
  H        29.7289217329       -8.7189684146       10.0985710494
  H        29.5607641784      -10.0382909335       10.8886894830
  O        26.7302550176       -7.2456620208       20.6373949054
  H        26.2291507725       -6.7305374212       21.4003382439
  H        26.2590402665       -7.0001342739       19.8217682020
  O        27.9885481788       -9.6781070194        8.2257384379
  H        27.5931103930      -10.2982483833        8.9354017757
  H        27.3853058104       -8.8698806971        8.2186636873
  O        19.1520836954       -2.1298130097        4.9048283521
  H        18.7925885790       -2.0843636648        5.7948799610
  H        19.3434550761       -1.1623944126        4.7647768448
  O        25.7006900736       -3.2763753553       25.5613804302
  H        25.0929046600       -2.9866660593       26.3011802191
  H        26.3271791089       -2.5439328378       25.4234607080
  O        25.7875506053       -1.4254566962       20.6192786135
  H        25.5646119447       -2.3001430082       21.1266590069
  H        24.9274609452       -1.1648446323       20.2094573932
  O        19.9974229040        0.8505007898        7.6121666667
  H        20.6459995132        1.1738951649        6.9099799932
  H        19.3351382036        1.6536668701        7.5838911773
  O        23.2502875726       -0.3742297270       19.8480255110
  H        23.1123003156       -0.5776388053       18.8472386082
  H        22.7130506640       -1.0649717081       20.2319217916
  O        30.3782406405       -0.8439550950        7.2242510265
  H        31.2053532385       -0.2710827300        7.2371981819
  H        30.3962732549       -1.2501647597        8.1049858620
  O        28.1487504997       -1.9737845597       12.2101518159
  H        28.3108727299       -1.0629753483       11.8312298737
  H        28.1239197168       -2.6566149583       11.5157026537
  O        24.2248415219       -3.0939293111       15.6935920812
  H        23.3772728965       -3.4706076404       15.3730763256
  H        24.6024595752       -3.6962370271       16.3715693060
  O        19.5633634810        0.4410320391       16.4845753773
  H        18.7592932147        1.0069351285       16.5185493707
  H        20.3992873086        0.8526125601       16.9070656174
  O        20.8755320150       -2.6942524219       11.2096309404
  H        20.9903503640       -3.5991718628       10.7648673484
  H        20.5203079916       -2.7968252140       12.0879815017
  O        34.7753617149       -9.0817267875       10.6760038653
  H        35.4212885905       -9.1570354030        9.9350651037
  H        34.3152455011       -9.9923954602       10.5273574397
  O        21.1874048568      -11.3886572104       10.1278183961
  H        20.8260824368      -11.4677545088        9.2328227581
  H        20.6242098144      -11.7475640182       10.8077780847
  O        14.3564022090       -5.7903702801       13.4397261775
  H        15.2755519027       -5.7068227480       13.1765121149
  H        13.9971091604       -4.8515561503       13.3155596519
  O        23.3329281521       -0.2272648781       13.3443869115
  H        23.3974877500       -0.7810650511       12.5017870851
  H        22.3113832610       -0.3088770713       13.6066958157
  O        24.0935935598        2.0071043231        8.8665316806
  H        23.7230075891        1.2399007621        8.3945280412
  H        24.8747166274        1.6905816321        9.3345380933
  O        23.9454129296       -7.8212061145       15.3875863112
  H        24.0121830747       -8.4128550642       14.5819987877
  H        24.3014344869       -8.3254793521       16.1386323960
  O        21.2648221537       -7.6528608018       18.7113228065
  H        22.0281834783       -7.7365602350       19.3158958127
  H        20.5282701561       -7.4015638338       19.2112083488
  O        13.2265217582       -7.2074770794       18.2445734475
  H        12.8191937109       -6.3508571829       17.9712765031
  H        13.6734301289       -7.5564924511       17.3790497660
  O        29.2665140773        0.6830321825       11.3934373314
  H        28.5723248962        1.0051113501       12.0288411233
  H        30.1177167406        0.5705096874       11.9905748931
  O        24.7121840715       -4.1747290876       18.0994920758
  H        24.1568064818       -3.6857787239       18.7523891237
  H        25.6222158967       -3.9166415018       18.4947603427
  O        31.2643250907       -7.4457510936        7.8137079874
  H        30.8527106310       -8.2682745810        7.5624334549
  H        31.9358417301       -7.6394984517        8.6182709115
  O        16.3805739971       -8.9037395555        2.0460949959
  H        16.9156637410       -8.2664320699        1.5612091451
  H        15.8115260420       -8.2497535752        2.4839339981
  O        20.5602763919       -9.6111614343        1.3466840221
  H        21.5552758931       -9.6579332888        1.1988405615
  H        20.2044882315       -8.8716795427        0.8034738977
  N        21.9657322348       -6.0906706266       16.4839004712
  H        22.5229045926       -5.3428550338       16.8936392487
  H        22.4950362780       -6.7099584495       15.8194773320
  H        21.2098756776       -5.5794267679       16.0669570376
  H        21.6295040417       -6.6929199572       17.2579220742
