     194
 CELL 12.4294 12.4294 12.4294 90.0 90.0 90.0 i =    90820, time =    45410.000, E =     -1097.1143939047
  O        18.7364150519       -0.4915445106       13.9092415562
  H        18.3707606038       -1.3939248799       13.8958509781
  H        19.6651198655       -0.7257080036       14.1503427759
  O        23.5313562605      -10.6140401406        9.3673657169
  H        22.8185324886      -10.8314767063       10.0572996188
  H        24.1902702167      -11.3269601659        9.5777030535
  O        21.8109604818      -12.3233415109       14.5186341361
  H        21.6140816465      -12.0563630538       15.4609206765
  H        22.1753578600      -13.2531594722       14.7971594348
  O        17.0804287586       -3.1481106240       14.1807691553
  H        16.6050211194       -3.4693031975       15.0250915867
  H        16.4372165697       -2.4428453241       13.9055484387
  O        10.7232430752       -9.8004346496       15.5867628991
  H        11.5953762337       -9.7886280268       16.1094590382
  H        10.7827169394      -10.5288594813       14.9501866793
  O        29.3177702762       -7.4542292301       23.7977069359
  H        29.2296889395       -6.5288761059       24.1660075668
  H        28.4147313294       -7.9753956798       23.8212669871
  O        20.7151882735        1.9117948278        4.3188134899
  H        20.1346211393        2.4413045862        3.7604039279
  H        21.6421415458        2.3195852097        4.0783846173
  O        24.6216494964        0.9421224979       13.4236856286
  H        25.3502874229        0.5787129843       13.9993361541
  H        23.9391316763        0.2682065164       13.5260587273
  O        16.8502514406       -7.2300376774        4.4552916462
  H        16.9357167306       -7.6127483277        3.5545278556
  H        16.7679023916       -8.0102459890        5.1178690155
  O        22.1426104807       -4.2796900609       11.6885676009
  H        22.5203255526       -5.1787550172       11.7651158806
  H        22.9175479838       -3.6755478272       11.4132594815
  O        21.8070403340       -7.3712948184        6.0129959454
  H        22.6481596449       -7.2766052914        5.5928989724
  H        21.8867217743       -8.1545800024        6.6355556438
  O        17.3308428461       -1.0861058804        9.6145648156
  H        17.6459133699       -0.4408958785       10.3080931695
  H        17.5942831063       -1.9588316011       10.0879757473
  O        14.4709986731       -0.1150097654       14.7581581744
  H        14.2568435734       -0.4037961165       15.7016352509
  H        15.3439638632        0.4004976011       14.9215062800
  O        24.8910303392       -8.5031282505       12.9214259749
  H        25.6975406736       -8.6335426558       12.4067430487
  H        24.5869532197       -9.3936917373       13.1072366156
  O        19.9895118562       -3.1563298058       12.8420208058
  H        20.7063849657       -3.6468338505       12.3615237379
  H        19.3038924572       -2.9889943845       12.0960851632
  O        26.7794407421       -2.2948152609       12.9704893451
  H        27.1987185947       -2.0258960811       12.0921043136
  H        26.8819727345       -1.5346414006       13.6406315751
  O        25.4476807141       -4.3775015457       14.6781549561
  H        25.7630331603       -3.7166902345       14.0037920001
  H        25.8445452001       -3.9611741228       15.5912684784
  O        24.6840999804        1.5797533349       17.5227169973
  H        23.9478160814        1.8275909156       18.0796506109
  H        25.3602020501        1.6077801426       18.2548189978
  O        23.2223761471        7.2023425219        8.7460915875
  H        22.5926482085        6.7278101244        8.1496500037
  H        23.3420037487        6.6955222170        9.6164139884
  O        16.6334151713      -11.2828832231       15.3528839505
  H        17.4611587163      -11.6487263050       14.9951770844
  H        16.6087756387      -10.3383180596       15.0426371406
  O        26.3140603804       -0.9108039670        4.9105898699
  H        25.3106682533       -0.7157613495        5.1567757765
  H        26.7451181915       -0.8312861051        5.8034759919
  O        20.6601707620        2.9762078960       13.1860480571
  H        21.4738177489        3.5667577630       13.1130539421
  H        20.9841530565        2.0875092594       13.0264894991
  O        27.5427652583       -2.4265044725       22.5222251850
  H        28.2463710238       -1.8183510155       22.1343643171
  H        27.5705859843       -3.2576305152       22.0023357086
  O        18.1832002355       -2.2296365584        4.9769104251
  H        18.0971718056       -1.3131089991        5.2959348130
  H        17.3250942020       -2.7376286704        4.9190286759
  O        20.3424274099       -2.8600769749        6.7616580981
  H        20.4582872790       -2.8780906776        7.7646827736
  H        19.3966927519       -2.9828196004        6.4754202685
  O        26.1586789886       -7.2471436857       15.2102561417
  H        26.3286455120       -6.3577664528       14.9725093009
  H        25.5800209764       -7.6350089227       14.4839112852
  O        30.2078895629      -11.7581449287       11.6981932851
  H        30.6454660675      -10.9211981257       11.4999896939
  H        30.6329395751      -12.1921602925       12.4872717274
  O        27.5719455814       -5.0737021530       21.0742543559
  H        28.4708989725       -5.5214171402       21.1362314945
  H        26.9526966638       -5.6425312628       20.4712563021
  O        16.9999234913       -7.1873870101        8.5504308343
  H        16.8799736321       -7.3729796501        9.4700963906
  H        17.7641937805       -6.6808850228        8.3457726414
  O        19.3292115209       -8.3960013902       15.1864707382
  H        19.8935321246       -8.8687809694       14.5452363231
  H        19.9598860073       -7.5833399376       15.2108436721
  O        16.2988607959       -4.8550736881       12.2280815125
  H        15.3573269159       -4.7326479891       11.9869590859
  H        16.4209903766       -4.5779491620       13.1557432567
  O        22.7503849932       -2.3873131692       21.2683865943
  H        22.9168634448       -3.3455827503       21.2855265721
  H        21.8915398731       -2.1749830260       21.6262631061
  O        23.8127571836       -6.4525221458       11.2512028894
  H        24.6788832465       -6.0194246412       11.4987987821
  H        24.0001035396       -7.3335758827       11.6180014843
  O        20.2993635331       -4.1852230438        9.3315432845
  H        20.0407820482       -5.0785564691        8.8781051897
  H        20.8318018421       -4.3625149737       10.0995677101
  O        32.7263942632       -0.4431368354        8.8529961177
  H        32.9086726167       -0.1387331429        7.8952831752
  H        31.8392571489       -0.7752106598        8.8569806841
  O        26.7135557834        1.8434769536        7.1295259894
  H        26.2112624772        2.1816306289        7.9166738973
  H        27.0747367920        0.9729817987        7.4713382725
  O        26.1147344143       -3.5782518996       17.2586105480
  H        25.3836332612       -3.8941853061       17.8178360652
  H        26.0399271486       -2.5524622089       17.2178256640
  O        27.0839327956       -8.9349496474       11.2708134528
  H        26.6572815868       -8.9552879289       10.3690821229
  H        27.2076311788       -9.9291626436       11.4717936449
  O        25.3902910329       -6.4487376584       19.8777310398
  H        24.6440070462       -5.9204395224       20.2249397965
  H        25.1427741827       -6.7242746283       18.9492053342
  O        25.5958481549       -8.8193620350        8.9242086195
  H        24.8142635315       -9.1540064081        9.2652173671
  H        25.3910837366       -7.9578838331        8.3668932442
  O        16.2264094419       -4.3022306726        4.2266045574
  H        16.5753375487       -5.2116362360        4.3642718322
  H        15.3229888896       -4.2190594140        4.6008426119
  O        24.5290162680       -2.9716739402       23.7499422796
  H        25.0969667457       -2.4141204027       24.3838682252
  H        24.5225092569       -2.3821275487       22.9836875493
  O        23.5895735889       -1.1328344865       18.5488031594
  H        23.6730798681       -1.5871754639       19.4371000190
  H        22.7046278909       -0.7154007142       18.5755936823
  O        19.2395947332        2.2532541947        6.6151629864
  H        19.8064170628        2.5201260631        5.8607492975
  H        18.4210139140        2.8262090386        6.5382981340
  O        20.9784550546       -0.2709053454       18.3892711288
  H        20.5071475509        0.1110562435       17.6232729593
  H        20.5688240546       -1.1209178514       18.6626581229
  O        28.0673048620       -0.6217125460        7.3183462498
  H        28.7281879178       -0.2985903371        6.7208478050
  H        28.6591615520       -0.9940937972        8.0550161900
  O        25.6628125167       -0.1708310797        9.8862746223
  H        26.3961121383        0.1691804375       10.5155847803
  H        26.0774782867       -1.0216925145        9.5736645622
  O        22.6703146185       -2.5757391850       14.5253006936
  H        22.2550604622       -2.9907751658       13.7449968257
  H        23.3716728265       -3.2481642958       14.7217478188
  O        17.6883691545        0.3801188699       18.0578637489
  H        17.2568123032        0.9961319275       17.4883150642
  H        18.3407905812        0.9078791153       18.5198652926
  O        18.1091505917       -3.2283918882       10.7707122887
  H        18.7498282819       -3.7825093656       10.1774819416
  H        17.4405503322       -3.6749104529       11.2785376017
  O        31.6581823169       -6.2585745667        8.1460067005
  H        31.7287542266       -6.2067055322        7.1419817369
  H        31.9913803671       -7.2315682442        8.3569009455
  O        20.3685461336       -8.5443364842        8.7522237330
  H        20.4417837302       -9.1900327926        7.9981726627
  H        19.7446557219       -8.9659907681        9.4286535963
  O        13.9179189144       -5.2982768778       11.0113552910
  H        14.5643697361       -5.1804351246       10.2168812359
  H        13.3664317186       -4.4984636760       10.9867423556
  O        21.5987004354        0.7289031146       11.0665904510
  H        20.8913908359        0.5950191562       10.3705819342
  H        21.8200415912       -0.2023777088       11.3090672570
  O        22.5127036694        2.3907817051        6.9181292307
  H        21.8427060856        1.6973364566        6.7823193258
  H        22.9787623353        2.1173013992        7.7875837318
  O        22.5059306652       -7.2623632113       14.0395886197
  H        23.1839230094       -6.9816238296       13.4227574455
  H        22.9099400625       -8.0166708203       14.5606629250
  O        19.3385206038       -6.2024576271       17.5338366051
  H        20.1583342184       -6.8319371818       17.6494902391
  H        18.4979067369       -6.6755040095       17.2756758451
  O        12.0203491942       -6.5258570033       17.2147027902
  H        11.6149290512       -5.8597703525       16.6454801944
  H        12.6352341020       -7.0101879133       16.6364394531
  O        27.6143337752        0.8016288881       12.0314949091
  H        27.1841217089        0.5286857815       12.9004150026
  H        28.5964949523        0.5490837683       11.9528603637
  O        22.8757237585       -3.8972705536       17.5523427253
  H        22.0599216961       -4.0309687978       18.0910280891
  H        23.1172316601       -2.9788021597       17.7500675891
  O        29.1659839159       -9.0133421010        6.5755213424
  H        28.3930025366       -9.6693833055        6.5350306156
  H        28.9429777946       -8.3466241772        7.2844256383
  O        16.1840901118       -8.7331360893        2.0339596218
  H        16.5802500244       -8.2012800234        1.3462265461
  H        15.3354109514       -8.2887158996        2.2870054574
  O        18.9045627974       -9.2898597527       -1.4381726621
  H        19.6331064332       -9.1054517873       -0.7778256884
  H        18.2755605948       -8.5530716205       -1.2155629744
  N        19.6647076702       -3.9399897947       15.5629301880
  H        19.0121866455       -3.1964554499       15.9388557507
  H        19.4593572665       -4.0989900183       14.5875058350
  H        19.4855154521       -4.7931436666       16.1233569963
  H        20.6320732540       -3.5415121986       15.6072201123
