     194
 CELL 12.4294 12.4294 12.4294 90.0 90.0 90.0 i =    89620, time =    44810.000, E =     -1097.1236075711
  O        18.1504173995        0.3047737766       13.6385597127
  H        18.3811820244       -0.6386415709       13.7774140196
  H        19.0457723444        0.7841822848       13.7640170181
  O        23.3880412001      -10.5447905848        9.2316416803
  H        22.7644368254      -10.8973374190        9.8675933812
  H        24.2475964347      -11.0662417343        9.3213833353
  O        21.8593092195      -13.1000631998       13.4522109874
  H        21.4036389515      -12.7143821963       14.2274433515
  H        22.1087896484      -14.0490884685       13.6481302557
  O        16.6677301598       -2.8925794815       14.5582620121
  H        16.5468608517       -3.5059910691       15.3231060198
  H        15.9199407052       -2.2513359800       14.5711174826
  O        10.4185011959       -9.9231570101       15.4917140329
  H        10.8935923716       -9.6835710869       16.2815536465
  H        11.0404955957      -10.5461469636       15.0323623438
  O        28.6060411943       -6.9271622536       24.3675615178
  H        28.5064543142       -5.9587829024       24.2621638520
  H        27.7934801405       -7.4051251622       24.0475945512
  O        20.9285605112        0.5766711755        3.3981593955
  H        20.0958599120        1.0269089189        3.6483658300
  H        21.6353184475        1.3146477390        3.4613783686
  O        24.0068668170        0.8108548969       13.1584767890
  H        24.7515761825        0.3696462971       13.6052900092
  H        23.2420547169        0.1104302015       13.1746839026
  O        16.6343014595       -7.2562576804        4.2885527688
  H        16.1126736327       -7.5537245601        3.5394543711
  H        16.2877140494       -7.8108746866        5.0173998671
  O        21.5260560314       -4.6437524775       11.4969622711
  H        22.0285572164       -5.5512320713       11.3988661536
  H        22.2648501109       -3.9844829090       11.2434349557
  O        21.5902292925       -8.6900476631        6.2743350262
  H        22.3090875012       -8.3537693407        5.7171907893
  H        21.9743809139       -9.6073083997        6.4681975111
  O        17.5609989217       -0.2294017554        9.5986490826
  H        17.3499477945        0.3830715818       10.2861385628
  H        17.5737809535       -1.1695671144        9.9828242784
  O        14.5578515552       -0.4498203815       14.6069817850
  H        14.1533480061       -0.8548815524       15.4343917792
  H        15.1069697963        0.3742293518       14.8070404079
  O        24.3160250859       -8.7882188608       12.5872898503
  H        25.2010045411       -8.4930106070       12.1717729915
  H        24.2871615719       -9.7872272720       12.6098004792
  O        19.5360276678       -2.9614615412       12.5706165050
  H        19.9805309735       -3.6744890191       12.0349301783
  H        18.7269810782       -2.7209926659       12.0908323798
  O        25.7521786112       -1.7802759812       12.5626803724
  H        26.4505954777       -1.8117605994       11.9461174630
  H        26.1022178340       -1.0514923668       13.1333774210
  O        24.7175315809       -4.3890961855       14.7462735751
  H        25.1524465645       -3.8592864473       14.0637473075
  H        25.1166114872       -4.1473906634       15.6641870083
  O        24.6276917189        1.6507486060       17.4083712044
  H        23.9500952623        1.5855471057       18.1393301489
  H        25.4001071926        2.0989010967       17.7681061660
  O        22.0233177996        5.7270122569        8.3899250872
  H        21.5468791365        4.8733155544        8.1008008614
  H        22.2841250030        5.5332516483        9.3396796512
  O        16.2213921813      -10.9834108598       15.1994320657
  H        17.0343588664      -11.2908407852       14.7170730965
  H        16.0913796980      -10.0280688221       15.0968594288
  O        26.3807618473       -0.7757666510        4.9777599750
  H        25.7651594387        0.0055511562        5.0718628212
  H        27.0966724374       -0.6799973802        5.6632801612
  O        20.2509844857        2.1791238508       13.1121561061
  H        20.7218603688        3.0350132378       13.2868914341
  H        20.5685328181        1.9045970593       12.2013887328
  O        26.9325434483       -2.0231382551       22.0850404669
  H        27.7571163337       -1.9216148494       21.5993878981
  H        26.7423163864       -2.9589557680       22.0534130577
  O        18.2728480879       -2.4252423916        5.0927300150
  H        18.1181697010       -1.4691907289        5.1786130480
  H        17.4529740515       -2.9325810854        5.1654405423
  O        20.3740370437       -3.1295310174        6.7709706192
  H        20.1176528078       -3.4292443660        7.6603306277
  H        19.5084002184       -2.9459972506        6.2990060175
  O        25.0436796852       -7.1324285269       14.8969303251
  H        25.0234643069       -6.1289004117       14.6404279351
  H        24.4626730615       -7.6007399983       14.2006334194
  O        29.6981881251      -10.6863219634       11.4544707210
  H        30.1145054647       -9.8348759281       11.7421509544
  H        30.0889001018      -11.3567914069       12.0369177300
  O        26.2284697847       -4.9324320166       20.8684532843
  H        26.9754632509       -5.5153920643       20.8378158883
  H        25.5764430420       -5.2447836813       20.2672871823
  O        15.8005918194       -6.7873093914        8.4434510546
  H        15.7940612229       -7.2727423901        9.3145374322
  H        16.7688961010       -6.5431350536        8.2706926021
  O        19.2184958139       -9.0661583147       16.2062626881
  H        19.7924316041       -8.6452673590       15.5053459323
  H        18.4192174604       -8.5271608674       16.1114890263
  O        15.4920879927       -4.0800783131       12.0143207827
  H        14.5473795366       -4.0459923998       12.2047376462
  H        15.9024482307       -3.6768172937       12.8186175493
  O        22.1964438322       -1.4363095885       20.9802075516
  H        21.8398876317       -2.2028700743       20.5597975468
  H        21.4471562671       -0.7942494816       20.8926461554
  O        22.9731296615       -6.8421619646       10.9598211215
  H        23.8365261002       -6.2855516020       10.7109374355
  H        23.3099136458       -7.5988674266       11.4743417306
  O        19.5268486197       -4.3990190691        9.2337295533
  H        19.2941433173       -5.2217928880        8.7023954708
  H        20.2591665954       -4.6469390141        9.8762431552
  O        32.2353059398        0.1841828317        8.4114100488
  H        32.1072851654        1.0424578408        7.9491617955
  H        31.3758550774        0.1002959850        9.0090320787
  O        26.5565119453        2.4515127308        6.6555374756
  H        26.0158287714        3.1200906267        7.1341853597
  H        26.6540723482        1.6083391278        7.1766974728
  O        25.8305005025       -3.5129693693       17.1618116564
  H        25.0657775125       -3.5177993126       17.8373563228
  H        26.0896666045       -2.5591885469       17.1715604321
  O        26.4571000816       -8.0832153496       10.8267508420
  H        25.9828196910       -8.1762417106        9.9540885273
  H        26.6955698048       -9.0702346610       11.0015767314
  O        24.0837473866       -6.3329577803       19.2647162654
  H        23.2909696618       -6.2768308545       19.9001396631
  H        23.8719873924       -6.6776308629       18.3419448426
  O        25.1032384065       -8.4249842006        8.3192283658
  H        24.4284298967       -9.0144289227        8.7488609966
  H        24.6425683047       -7.6423554761        7.8346815356
  O        16.2230357396       -4.3509814402        4.4774779441
  H        16.3345252624       -5.2950460268        4.7141989056
  H        15.2541160827       -4.1814245912        4.5178658404
  O        23.2195636363       -2.4516931597       23.2708209074
  H        23.9411719453       -2.0432421759       23.7629762065
  H        22.9473243542       -1.8929539622       22.4671182630
  O        23.7187722980       -3.1196549497       18.9855120098
  H        23.6408318750       -3.3970767660       19.9099810978
  H        23.3415915759       -2.2721914070       18.9647717557
  O        18.9771046676        2.4756736596        6.7890608924
  H        19.6589385341        3.0667623581        6.4611806919
  H        18.1355535157        2.9357050849        6.9227985698
  O        21.8340148982       -1.0358996155       17.9695228201
  H        21.3590773221       -0.5893284190       17.1024572306
  H        21.2395692326       -1.6944168369       18.4277934397
  O        28.5542194465       -0.3092241881        7.0361737422
  H        29.2713800085        0.0127994135        6.4082440753
  H        28.5406913912        0.3790667945        7.7124359269
  O        26.1732797929        0.5568882190        9.0496901369
  H        26.5883544154        0.7780091704        9.8931580573
  H        26.1211366879       -0.4622700028        9.0965804036
  O        22.2628755585       -3.2808612629       14.0950760429
  H        22.0566954779       -3.7208765471       13.2399560991
  H        23.0289098842       -3.7662972520       14.4387851766
  O        18.1286019828        0.5861474047       17.4806041321
  H        17.6791875969        1.1557760910       16.8706518135
  H        18.6304563092        1.2302705008       18.1138748103
  O        17.4246591950       -2.9048695768       10.4805137922
  H        18.1601924712       -3.3395202272        9.9107810854
  H        16.7066859672       -3.5326120481       10.5071420509
  O        30.9898799020       -6.6402179166        7.6307952841
  H        31.5376299298       -6.4189038187        6.8466123332
  H        31.5123837205       -7.3115057704        8.1756636844
  O        19.7064762056       -8.6880000456        9.2386185177
  H        19.5500896272       -9.4940322436        8.7109038426
  H        19.2741516296       -8.7943366350       10.1360644765
  O        12.4469256362       -5.1096867337       10.6358543895
  H        13.1271544330       -5.1090113640        9.9680785263
  H        11.9851027236       -4.2752122575       10.4103898709
  O        21.4826577717        0.7150720095       10.8660721632
  H        20.8774524753        0.2027681115       10.2527094959
  H        21.6038778847        0.2048239947       11.7025451579
  O        22.6153972077        1.2380291071        6.6641396636
  H        22.1705099347        0.3665804698        6.3584767021
  H        22.7795219126        1.1726963635        7.6522101196
  O        21.3551393103       -7.7834126247       14.0874349792
  H        21.9734678194       -7.5199410636       13.4116439027
  H        21.8132490859       -8.3752378476       14.7110340226
  O        19.0582930936       -5.8563675431       17.2332923060
  H        19.8094063319       -6.4743551351       17.1074922133
  H        18.2404298460       -6.3135771460       17.0018801087
  O        10.8205678562       -7.2446911236       16.7150028057
  H        10.1726394366       -6.5290106830       16.4793936001
  H        11.5152177688       -7.3222973045       16.0152112809
  O        27.1446588971        1.9075791341       11.4489288443
  H        26.7848689785        1.9797127128       12.4116515978
  H        28.1621125189        1.8281006350       11.6108709317
  O        21.7557150360       -4.6531547078       17.1784990793
  H        21.1915652764       -4.5027411574       17.9835293655
  H        22.6117161641       -4.3441800264       17.6587907254
  O        28.9357980569       -8.8310057822        6.4553962564
  H        28.0651937352       -9.3700593899        6.3722436375
  H        28.6577671883       -8.1294097463        7.0855885917
  O        15.4490135848       -8.1537570146        2.1281664984
  H        15.9250271845       -7.5633164883        1.4695048902
  H        14.5377203286       -7.7467980703        2.2581543413
  O        18.4547708047       -8.3208312099       -0.7597758744
  H        18.9888158087       -8.0605414468       -0.0380691989
  H        17.5984365700       -7.7886080322       -0.7223767392
  N        19.8327757697       -3.4545251003       15.3327186397
  H        19.4220533199       -2.7137703457       15.9742509088
  H        19.3062989356       -3.3799004085       14.4421795880
  H        19.8933525192       -4.4304798166       15.7399687901
  H        20.8475415904       -3.1891604969       15.1230295410
