     194
 CELL 12.4294 12.4294 12.4294 90.0 90.0 90.0 i =    71220, time =    35610.000, E =     -1097.1471551864
  O        11.3472977434        0.4811577918       12.3359803535
  H        11.5901650458       -0.4641606701       12.1436778784
  H        12.2372202347        0.9019526272       12.0439744584
  O        16.3143313476       -8.9805366141        9.0082278242
  H        15.8509472281       -8.1690673172        9.3612490034
  H        15.5864650482       -9.6145503862        8.7747985336
  O        13.7924084721      -10.8437308475       11.4237571391
  H        14.3542752389      -10.5161598133       12.2635022175
  H        14.3537655900      -11.4576098147       10.8698845665
  O         8.6841431294       -2.9782447447       13.2723565669
  H         8.5206082061       -3.9283683689       13.7051602931
  H         7.7875880721       -2.6092079728       13.3655122996
  O         2.7287222764       -9.9944767727       13.6023143159
  H         2.8248047704      -10.4633899308       14.5412382124
  H         3.6622135395       -9.9464671077       13.2620307006
  O        17.9283850263       -5.4834241587       23.3505184124
  H        18.4881891932       -6.0834274742       22.8448544659
  H        17.9393444330       -4.6832100653       22.7532828694
  O        12.8129128032       -0.1584007743        2.7282194847
  H        12.8156025167        0.7972703245        2.7339411780
  H        13.2295543836       -0.4841748800        1.9387368447
  O        17.1546908605        2.6276504334       11.7802740247
  H        16.8514080165        2.8663184704       10.8223923741
  H        17.8136966251        3.3915486389       11.8965906326
  O        10.5432501637       -6.7573273503        3.3730624262
  H        10.4221309485       -7.4800700392        2.6928114111
  H        10.0004226790       -7.0295773266        4.1906408066
  O        13.4369014009       -2.1453714585        9.7460399420
  H        13.0901077317       -2.0866870376       10.7205056291
  H        13.5864632332       -3.0709001193        9.5430512804
  O        14.8614343111       -8.3794924450        3.7704047196
  H        15.5426567926       -8.0671626583        3.1970279159
  H        15.1413621037       -7.9642323668        4.6093236216
  O         9.8898943814        1.5027285845        9.6914555130
  H         9.5701446285        0.6662667242        9.3482845364
  H        10.4903600022        1.2659904941       10.4697172092
  O         6.2806599436       -1.4258645970       13.8816466223
  H         5.4624521436       -1.2781278272       14.4504299116
  H         6.7192820513       -0.5079512122       13.9601447935
  O        15.5158641443       -6.8147240337       10.4965881241
  H        16.3645932135       -6.3536879281       10.5791239946
  H        15.1911804535       -7.1263059639       11.4060987134
  O        11.8453286754       -2.2027862740       11.7177106712
  H        10.9676970685       -2.6197646371       11.2257153133
  H        11.9819655545       -2.7619378967       12.4928693224
  O        17.1053681043       -1.5510579439       11.5039974884
  H        17.4564808276       -1.9348265887       10.6715266635
  H        17.8563013816       -1.3794033614       12.1209091756
  O        15.9840041769       -5.0296867888       13.3332737489
  H        15.2034311363       -5.2451189027       12.7887674945
  H        16.7466272051       -4.7223273863       12.7954608607
  O        16.1541413464        1.4044813038       16.1076959890
  H        17.0153945221        1.8984057167       16.0828726418
  H        15.7062846174        1.6940411493       17.0067016914
  O        12.9775894382        5.4861244893        6.8895786565
  H        12.5141013024        4.6778254220        6.4706371219
  H        12.8785550813        5.2980707199        7.8457193543
  O         9.7179662705      -11.0202458954       14.4296601861
  H        10.3362304721      -11.3162689951       13.5969534701
  H         8.7893900772      -11.1210014624       14.1418445423
  O        16.5014741050       -1.2004433806        3.2225681797
  H        16.4390065503       -1.6234445094        4.1285426910
  H        16.3694399030       -0.2416560668        3.5069311731
  O        10.9566207399        4.6310794513       10.8475294959
  H        11.7267042996        4.3092822429       10.2791130961
  H        10.3060106769        3.9363032457       10.5612281844
  O        19.2459380965       -1.7274362286       19.7903066268
  H        20.1211042863       -1.5552436534       20.2462754362
  H        19.4081503188       -2.5730783934       19.2547882268
  O         7.3866472801       -4.0551558629        5.8222356408
  H         8.1968661144       -3.7936342526        5.2791863084
  H         7.8048132326       -4.5000531301        6.6290481592
  O         9.9274140606       -3.1300839596        4.9980901759
  H        10.7045459278       -3.6916519412        5.4110801938
  H         9.9915163354       -2.3410774613        5.6132888463
  O        19.0571234896       -7.2548327976       13.1028717560
  H        18.9080275266       -6.6744461685       12.3726813487
  H        18.2904235751       -7.1702413917       13.6939578119
  O        20.6590661536       -8.9013696760       10.3752114105
  H        20.2806757201       -9.0163474670       11.3139806272
  H        21.1403035972       -9.7784936598       10.1155720652
  O        15.6551695094       -4.2798905605       20.1557032337
  H        15.4711556768       -3.7491741672       19.3192174273
  H        16.2284922131       -5.0830790598       19.9963264785
  O         8.8914292859       -5.5915537772        7.6395800819
  H         8.2526085810       -6.1059377141        8.2868747180
  H         9.6851045656       -5.3618543241        8.2073333712
  O        12.6101692774       -9.9360114259       15.8748089818
  H        13.4274068844       -9.4050388788       16.1345096482
  H        12.1692944959       -9.4030909158       15.2049353139
  O         9.7391612744       -3.2495628522       10.6697839695
  H        10.0266143271       -4.1315052442       10.3267194530
  H         9.1772719629       -3.4210579713       11.4721988225
  O        13.2188107236       -1.5925948230       17.4588168366
  H        13.0283741941       -0.9634563846       16.6587477793
  H        12.5172503464       -1.2514988691       18.0706228657
  O        13.4640479093       -5.1139071548        9.3211250965
  H        14.0312376238       -4.9780807732        8.5105066854
  H        14.0997517110       -5.7132158275        9.7911928691
  O        11.5567643390       -1.8027629847        7.5699875743
  H        11.7279111421       -2.6066941226        7.0443744138
  H        12.2482801228       -1.7862757795        8.3442311520
  O        25.1856229979        1.3102739725        7.2173224573
  H        24.7207528207        2.1166963453        6.9821323430
  H        24.5987970839        0.5571941253        7.0610166738
  O        19.6938294159        3.1943705491        5.5038028839
  H        18.8884310879        3.5090667958        6.0577278516
  H        19.8198780080        2.2757129245        5.7729743670
  O        18.6956473196       -6.1318757522       16.8832359872
  H        19.3410492231       -5.9900304013       16.1483815447
  H        18.8294075628       -5.3959308795       17.5109946824
  O        19.3424227680       -6.8790892838        9.1803071043
  H        18.7274389837       -7.1083049955        8.4338591390
  H        19.9419573720       -7.6470573181        9.3783208883
  O        15.8668210099       -6.4751255752       18.3294772450
  H        14.9560171046       -6.4990389221       18.6557585025
  H        15.9144897725       -5.7896321896       17.5788134552
  O        17.9622589833       -8.0280700597        7.0696501422
  H        17.2736541222       -8.5730190930        7.5791663105
  H        17.4211310687       -7.3681864327        6.6410368466
  O         8.5021043075       -5.4477681980        2.1143701402
  H         9.2588906007       -5.6427389799        2.7340757621
  H         8.3039714561       -6.3147833487        1.6273435160
  O        15.6003549029       -2.5178476834       18.1148398900
  H        15.9113281280       -1.9715003929       18.9158811737
  H        14.7498336820       -2.0853664767       17.8660961636
  O        15.8764722391       -4.6444673554       16.3314180706
  H        15.7998717273       -4.7900814465       15.3682555910
  H        16.3621234587       -3.8374893110       16.4371073455
  O        11.5505748588        3.4192225471        5.8018592982
  H        11.9088931928        3.3202432593        4.8570371549
  H        10.6957561933        3.8953521960        5.7665310308
  O        14.8073391630       -1.8675539955       13.5476564619
  H        15.4013137684       -1.5685014581       14.2391378920
  H        15.3998751536       -2.1229086756       12.8798451233
  O        20.3935002713        0.7722226942        6.2991320491
  H        21.0659952677        0.6845064829        5.5682331477
  H        19.8041538802        0.0525362451        6.0617109944
  O        16.4933768114       -0.6023520640        7.3721251653
  H        16.2045773469       -0.5946190145        8.3599993102
  H        17.4486322990       -0.7619735438        7.2713673398
  O        15.4730499167       -0.0769614090        9.8565930570
  H        14.8135859430       -0.8530169123        9.7353542379
  H        16.1057332723       -0.4450513867       10.5375411081
  O        10.0550248993        0.7984949488       17.0459925878
  H         9.8494624909        0.9260093720       16.0437327139
  H        10.3462602994        1.6555674617       17.4133642599
  O         9.2466001563       -1.1625984450        8.9849287878
  H         9.9516994249       -1.6558539352        8.5319040518
  H         9.1856439636       -1.5404116139        9.8594570889
  O        24.5588495946       -4.3575418627        5.9780152478
  H        25.2472566558       -4.3938310178        5.3014855273
  H        24.5789419070       -5.2235100932        6.4622560022
  O        10.6796801044       -5.4289080553        9.6000914239
  H        10.5374328626       -6.3582250841        9.8993606123
  H        11.6208567699       -5.2311134507        9.5823378470
  O         5.2147973254       -3.2314902972        9.2054197518
  H         4.4981102325       -3.3590110781        8.5401064935
  H         6.0007687351       -2.8479046649        8.6901057787
  O        13.0808132363        3.2943736192        9.4639171953
  H        12.8755424400        2.4157182587        9.1080874817
  H        13.4319869774        3.0553558495       10.3303251100
  O        15.2163040921        1.6394819651        6.3897578437
  H        14.2363749742        1.4005087987        6.6141130461
  H        15.5985780241        0.7713552438        6.4626144138
  O        14.3425224104       -7.3419172679       12.9697586789
  H        13.6876821405       -6.8990510653       13.4973945306
  H        14.5075017874       -8.1634863053       13.4908808666
  O        13.0537298277       -6.1137549622       15.3014990895
  H        13.3854193608       -6.8961251409       15.7745331481
  H        12.0424574939       -6.1568054057       15.4755775681
  O         4.4307780836       -6.9757696381       15.0531193908
  H         4.0066356684       -6.2653952116       14.4444652201
  H         4.8764206598       -6.4465304346       15.8065732673
  O        19.3524072446        1.2228690953       13.7373782840
  H        18.7092781482        1.2024405695       13.0584151924
  H        19.0177593699        1.9823899190       14.4480837870
  O        12.7523973469       -3.6659394858       13.9153181718
  H        13.0604519114       -4.5955207922       14.1961334368
  H        13.6200684133       -3.2164538411       14.0573553563
  O        21.6812899660       -7.5891823951        5.5140641378
  H        20.8846764720       -8.1356658817        5.4815696731
  H        21.5490655652       -7.0183809622        6.3366840765
  O         6.0083158629       -9.5819459259        3.2883519996
  H         5.6734314231       -8.6505022240        3.1009023462
  H         6.6400595659       -9.3665066171        4.0179791096
  O        11.0835540485       -8.7025091663        1.4728176111
  H        10.3921269611       -9.4002809404        1.7188722842
  H        11.1167974034       -8.5543302432        0.5087038624
  N        10.6287088881       -2.0069197937       14.9907283293
  H        11.2304160607       -1.1451557989       15.2059519537
  H        11.2746799898       -2.8009141800       14.7438154108
  H         9.8668060111       -1.9065034992       14.2235385657
  H        10.1346529207       -2.3357492051       15.8167346262
