     194
 CELL 12.4294 12.4294 12.4294 90.0 90.0 90.0 i =    80820, time =    40410.000, E =     -1097.1462476750
  O        15.5787997103        1.3500668047       12.2371616100
  H        16.4052494368        0.7343064376       12.2701952807
  H        15.8905320873        2.2616925967       12.2927963779
  O        21.3509358278      -10.8683335336        9.8658580265
  H        20.5900323463      -10.7655984414       10.4952884491
  H        21.5008896263      -11.7980342748        9.5849698748
  O        19.2188362335      -10.4744616259       11.1371791484
  H        19.3523017772       -9.8240742487       11.8878560725
  H        18.8193678870      -11.3303028357       11.4297622545
  O        12.8470093605       -3.1641380692       13.0929159594
  H        13.0717088081       -3.7044518122       13.8434599884
  H        12.0959788387       -2.5771670956       13.4111780399
  O         7.7439778393       -8.3821937973       12.7290161575
  H         8.2668075766       -8.2906366721       13.5330316640
  H         8.1741728128       -7.7822391921       12.0898411403
  O        24.5175045392       -7.2823837844       23.4290667881
  H        25.4100796749       -7.5947058624       23.7096377929
  H        24.6473300803       -6.9670312532       22.5045656411
  O        16.9969334356       -0.2059691624        2.4365671885
  H        16.9914904584        0.6917304920        2.8128588846
  H        17.7781435452       -0.0898521356        1.8298008284
  O        23.2384356479        2.6821889693       11.4411559901
  H        22.4583207675        2.3473204058       10.8864876877
  H        23.2267829905        3.6706435874       11.5204139137
  O        14.7601378350       -6.9498169067        3.5730954192
  H        14.9847012613       -7.5393858673        2.8159348958
  H        14.1127886164       -7.2959088154        4.2156775758
  O        17.9450824044       -2.6669499444       10.0014682781
  H        17.9853437294       -3.6080209316       10.3178390269
  H        18.6809739757       -2.3861271885        9.3689520598
  O        19.0767307695       -8.2775801520        4.1281337081
  H        19.8834594163       -7.7272130532        3.9983580382
  H        19.4002854667       -9.2259585837        4.1898563836
  O        14.4311317619        0.4155569688        9.7119006204
  H        14.2042236502       -0.5497330382        9.5504780987
  H        14.7735239556        0.4017294062       10.6039787758
  O        10.7321365066       -1.6471956487       13.8143450351
  H        10.3878880817       -1.7593082159       14.7629609487
  H        10.8802176364       -0.6483750856       13.8186023292
  O        21.0672255239       -6.2395097238       11.0932980668
  H        21.9130025496       -5.8812564717       10.7152317865
  H        20.8928777320       -5.8216103902       11.9489761077
  O        14.9826278144       -1.8838239877       11.7254676442
  H        15.3247377015       -2.5014818714       11.0509016136
  H        14.1713744053       -2.3059804026       12.0767882160
  O        20.9058137028       -2.1991971744       12.4677585788
  H        21.0186324536       -2.4312670864       11.4990826912
  H        21.7859457818       -1.9629288913       12.7643155965
  O        21.1564257735       -5.0566371196       13.8957188199
  H        20.9867529924       -5.2035092791       14.8408440925
  H        20.9930870123       -4.1077488781       13.8178032831
  O        19.6343888886        1.3070183227       14.1470094693
  H        19.6966019481        1.5236109236       15.0939869482
  H        20.5339793289        1.3811467336       13.8298012113
  O        18.9491670614        5.7280678524        8.9117556328
  H        18.3703143904        4.9834897074        9.0728558317
  H        19.8025717588        5.7152903240        9.5183901230
  O        13.8495489758      -11.7699475758       14.4731035998
  H        14.6511259787      -11.7799566189       13.8622075478
  H        13.0621174705      -11.5029864362       13.9997259059
  O        22.1475252015       -1.7795110163        4.0040376977
  H        21.1453202102       -1.5884509026        4.0205652714
  H        22.5753522252       -0.9936685335        4.4970898496
  O        15.1651891841        3.9232649178       11.0660205781
  H        16.1035130509        3.7916922138       10.6743994873
  H        14.5643618932        3.3070573270       10.5300618624
  O        23.9287962350       -1.8048482783       19.4413465905
  H        24.8224260015       -2.0119216628       19.8751033603
  H        23.6188480784       -2.6189468525       18.8981946599
  O        14.2906104152       -2.6398064682        4.7241834663
  H        13.8705230710       -1.8975118202        5.1936665783
  H        14.0096933426       -3.4974384818        5.0961557732
  O        16.8850942708       -2.2696620181        5.5586394646
  H        16.7704121906       -2.8247402494        6.4474084341
  H        16.0471953529       -2.4370485165        5.0805455708
  O        23.5837057804       -6.3557174867       13.7174405620
  H        23.8243501558       -6.3613946249       12.7795820936
  H        22.7596561367       -5.7915299890       13.8552419774
  O        25.4523965172       -9.7179921816        9.5206002199
  H        24.8742030590       -9.9497520942       10.3230559276
  H        25.7662353917      -10.6698449558        9.2734670922
  O        22.6632303119       -5.3640009722       19.5074648846
  H        22.8924294398       -5.0334971483       18.6309143544
  H        21.8667615087       -5.9272197643       19.3830961160
  O        13.7130322580       -5.1381743045        5.9572305307
  H        13.0082397402       -5.3199675950        6.6171861930
  H        14.5315676086       -5.5516087702        6.3043782461
  O        16.7295983874       -9.9989091343       15.7674273192
  H        17.4749040364       -9.4754582591       16.1398894867
  H        16.4749834956       -9.4850303076       14.8909272859
  O        12.7608653573       -3.9671726491       10.5816573293
  H        13.1913374045       -4.8771328192       10.3847843438
  H        12.6322104376       -3.8629821056       11.5385061536
  O        18.3078862607        0.0981587305       18.8931049474
  H        17.6976600883       -0.5229401507       18.4725653372
  H        17.6170611601        0.6947619891       19.3465172914
  O        17.3268800827       -5.1307462183       10.5531679127
  H        17.9410081162       -5.5722711542        9.9885600957
  H        17.3901294657       -5.5073707208       11.4695424625
  O        16.0331586878       -3.3117908225        8.1041381329
  H        16.0661724868       -4.2885129936        8.0091649957
  H        16.7832752996       -2.9123024394        8.6324034753
  O        28.8193328021        2.0118389063        7.6245649568
  H        28.2853639957        2.2293491640        6.7994421162
  H        28.2477609992        1.4198684291        8.1738891912
  O        22.6116703128        2.8170596854        5.1921853940
  H        22.5838045882        2.9988836177        6.1108844530
  H        22.8706612781        1.8532329981        5.1481768984
  O        23.3145631015       -4.1579139251       17.3174907916
  H        24.1074510260       -4.3595239200       16.7395373494
  H        22.8264800217       -3.4808323043       16.8010180719
  O        24.7486639836       -7.5507482363        8.0119566537
  H        23.8026133927       -7.8003257794        7.8572658495
  H        25.0121682648       -8.3055665426        8.5490235945
  O        20.4754261131       -7.3794047648       19.3130549054
  H        19.8545440703       -6.9688626017       20.0209543388
  H        19.8852653959       -7.7268920544       18.6221088885
  O        22.3381620530       -8.8136849384        8.0177758769
  H        22.1769203229       -9.3714552404        8.7628269494
  H        21.4934751433       -8.3062669053        7.7014242999
  O        12.8608559012       -4.9064102735        2.9618294978
  H        13.5200079506       -5.4741755622        3.3132125675
  H        12.3113445093       -5.5536725320        2.4604240908
  O        19.3224334302       -1.6074893378       20.4674981659
  H        20.2795061372       -1.4783081375       20.7049533958
  H        18.9774118190       -0.7704058774       20.1171154965
  O        20.0892679924       -3.5568615683       18.8310968720
  H        20.7621479188       -3.7649574964       19.5317129744
  H        19.5994094224       -2.9120199561       19.4094464804
  O        14.7991691127        2.1080538535        5.3964483281
  H        15.3980271483        2.2419018007        4.5841953527
  H        14.1447811522        2.8540249474        5.3991249310
  O        19.1422184804       -1.8691243532       16.2849473645
  H        18.6013295942       -2.0276942442       17.0967831556
  H        18.5780013011       -1.2880298478       15.6785398666
  O        23.3147369065        0.2930097635        5.3291389551
  H        24.2156856703        0.2857934332        4.8167278826
  H        23.5276221019       -0.3971964599        6.0309156661
  O        22.0081813844       -1.1700595616        8.8445142806
  H        22.2712046722       -1.8801214929        9.4399337437
  H        22.6576023848       -1.3464082303        8.1303361966
  O        18.2988734132       -0.6335006767       11.7436330034
  H        18.1441385354       -1.3364763278       11.0385507022
  H        19.1926388525       -0.8248159329       12.0835055307
  O        13.3546336195        0.0300018110       17.0651165115
  H        13.6911510050        0.1865181474       16.1617094630
  H        13.7460280235        0.7308952213       17.5556159782
  O        13.6608149958       -2.2488304099        8.6624925469
  H        14.5723608214       -2.7229810011        8.5094393537
  H        13.3082730041       -2.8018491225        9.3726973186
  O        28.5233800242       -6.2597184166        7.3396457962
  H        29.0210441054       -6.3165834295        6.4753546156
  H        28.0634704250       -7.1492344428        7.4494274426
  O        14.5647343823       -5.8193384704        9.5971049728
  H        14.4283435106       -6.7488777229        9.9184606363
  H        15.4971941096       -5.7042246947        9.8152999329
  O        10.2809985027       -4.4494881719        9.7671836796
  H        10.1646525710       -4.6818301884        8.7965658357
  H        11.1888152190       -4.1447040732        9.7748876449
  O        17.4378222230        3.4537714467        9.6905047010
  H        17.0413129007        3.1294493133        8.8766589908
  H        18.2631757989        2.9713392115       10.0476652345
  O        20.0535714141        1.7871973681        4.4973360031
  H        19.4485437568        1.2829135188        5.1315260836
  H        20.8895957089        1.9400692685        4.9194825309
  O        17.9757650546       -6.3290505785       13.1138602384
  H        18.4578726565       -5.6549847098       13.6219497597
  H        18.5434981695       -7.0799930232       12.9381209157
  O        17.1551497625       -6.0394335098       17.2384949263
  H        17.8488612872       -6.7741601734       17.0919288873
  H        16.3614617384       -6.3441569338       16.7906214490
  O         8.2937525963       -5.5245092536       16.5736832720
  H         7.9133724891       -5.0811139942       17.3761079648
  H         9.2849925817       -5.3958888067       16.7434143215
  O        22.9979968994        1.1273459961       13.7049415937
  H        23.0059601820        1.7171448934       12.8790682967
  H        22.8018767521        1.8443107335       14.3445785907
  O        17.9266810017       -4.3364928468       15.0760856204
  H        17.5214894484       -4.8018608409       15.8483162215
  H        18.4960618683       -3.6555682415       15.4486024805
  O        25.4557294472       -8.3182161344        5.4602034855
  H        24.6075068120       -8.6641294323        5.0619334326
  H        25.1340494626       -7.8865554918        6.2782110212
  O         9.6406944632       -8.8003144912        2.5208465966
  H        10.3127234560       -8.1382843377        2.2980806420
  H         9.6028213211       -8.8050006905        3.4989678739
  O        16.1071074532       -8.1441529651        1.3332670813
  H        15.5075720685       -8.1666575016        0.5371646149
  H        16.7327121312       -7.3908041225        1.1905127831
  N        15.7966109050       -2.7392877112       14.4720656159
  H        14.9660069835       -2.8297088566       15.1093287813
  H        15.4649739657       -2.6647456021       13.4914368360
  H        16.5261121184       -3.5125416840       14.5868007377
  H        16.1348945937       -1.7906621869       14.6985501749
