     194
 CELL 12.4294 12.4294 12.4294 90.0 90.0 90.0 i =    66820, time =    33410.000, E =     -1097.1404675404
  O         9.7072300674        0.6882348787       10.8239790916
  H        10.0603556762       -0.2222143705       10.4939137892
  H        10.5906207581        1.2608558241       10.9485912043
  O        14.7952989652       -9.2422865864        9.5667340468
  H        14.0653756653       -8.5972615414        9.5135696999
  H        14.4244800249      -10.1536307026        9.6534008350
  O        12.0129458180      -10.2178358312       11.2700506411
  H        12.4221873843       -9.6523132135       12.0506252502
  H        12.7109400922      -10.8485976297       11.0596776938
  O         6.2676667736       -2.9181544235       13.0740844396
  H         5.9851849500       -3.8050404619       13.4385996613
  H         5.5427505973       -2.2574930891       13.1575560229
  O         1.1115209497       -8.9860883130       13.2444313984
  H         1.4048796458       -9.5745330676       13.9961814123
  H         1.8966033917       -8.5052688767       12.8933932222
  O        15.9110794685       -6.0314454867       22.7377788106
  H        16.3802156492       -6.4288783182       21.9266172806
  H        15.9766585498       -5.0507576026       22.6213025052
  O        11.4880461686       -1.1031492147        3.0480922852
  H        11.0776903099       -0.2056474186        3.3498696713
  H        12.3814936694       -0.8717414534        2.6952505354
  O        16.8216651626        3.2190124997       11.6433352649
  H        15.9640401693        3.2278331428       11.0785074094
  H        16.6291037605        3.8818593798       12.2606944858
  O         8.1256744462       -6.8265481228        2.3475394729
  H         8.3426329126       -7.7521716463        2.0412222091
  H         7.4913475521       -6.8970003555        3.0868905021
  O        12.7285643531       -1.6610846085        8.1251193046
  H        12.2203658485       -2.0873961536        8.9181749470
  H        13.4639432608       -2.3207097343        7.8005466409
  O        13.2550865334       -8.7900016575        4.1555899384
  H        13.8100315801       -8.0259955934        4.4069373295
  H        13.2621479120       -9.4398789409        4.9460396957
  O         8.5781523533        1.8954191180        8.3929528632
  H         8.2411635425        2.1993494054        7.5143461096
  H         8.3998930940        0.8627569850        8.5069425388
  O         4.5414273637       -0.9616689197       13.2683512549
  H         3.8146447771       -0.9072124223       13.9303308642
  H         5.0071067808       -0.1299291607       13.4571023408
  O        12.9642701079       -6.4754614183        9.9723330097
  H        13.8998878423       -6.1836238478       10.0425600966
  H        12.6834572329       -6.6829757905       10.9333585969
  O        10.5999922282       -1.9969647868       10.0711617946
  H         9.7430534899       -2.2991804709        9.6604381489
  H        10.6301223094       -2.4746101746       10.9455227531
  O        15.3076552394       -1.5560681697       10.8686495482
  H        15.6801270649       -2.3122080030       10.4017772348
  H        15.9512621990       -1.2646003437       11.5391338671
  O        14.1491348136       -5.1160495007       13.9975442932
  H        13.3599131533       -5.5199948229       13.4993087938
  H        13.9523842791       -4.1046130297       13.8782433217
  O        14.5353190141        1.6818799972       14.8413942267
  H        15.4472591245        2.1586594846       14.8588142433
  H        14.0758733345        2.1959631791       15.5580354354
  O        11.8456121725        4.8676345973        7.1842640883
  H        11.5823173344        4.2268808114        6.4531294113
  H        11.7139486874        4.4190784491        8.0671530647
  O         8.4532446148      -11.4597965032       13.2347977248
  H         8.7963832405      -11.6805842928       12.3397506784
  H         7.4731679259      -11.2773880424       13.2028529603
  O        14.7012841422       -1.2137919461        2.7251885668
  H        14.9385919494       -1.1628244728        3.6866049556
  H        14.5684330412       -0.2879655444        2.4991554224
  O         9.0726675533        4.9744405054       11.0550338666
  H         9.5952078489        4.5843202510       10.2891262394
  H         8.2525719860        4.4992555292       10.8579014004
  O        17.9195968125       -0.5378466281       19.4748631878
  H        18.5775951263       -0.8486023251       20.1136790339
  H        17.6286307826       -1.3492636681       18.9702863289
  O         5.5816335749       -2.9545454510        5.8005488198
  H         6.4034881184       -2.8129554485        5.3042388988
  H         5.9704534260       -3.5678649432        6.5251977339
  O         8.2815239954       -2.5678407644        4.6703372105
  H         8.5941124268       -3.5594992748        4.6527616792
  H         8.7031399636       -2.1692230307        5.3895825555
  O        15.8735486506       -6.9057176506       12.7796037978
  H        15.7847004681       -6.4808074034       11.8218600453
  H        15.2247411354       -6.2768559619       13.2270509505
  O        19.1887268850       -8.7898183957       10.0782437898
  H        18.4489686523       -9.1709356300       10.6439177976
  H        19.7947427877       -9.4462499716        9.5276632280
  O        15.0723255257       -3.5863888125       19.9728775155
  H        15.3855482648       -3.2004108207       19.1218915605
  H        14.7440515886       -4.4982962245       19.7525338040
  O         6.2042829800       -4.7659104242        7.7522193593
  H         5.7249081330       -5.5415421662        7.8030475822
  H         7.0265916244       -4.9272652156        8.2694680643
  O        10.5290940496       -9.4954987151       15.7183024919
  H        11.3593571452       -9.0159901956       15.7851670258
  H        10.2948580724       -9.2160751947       14.7253928824
  O         7.1768777961       -2.7468870753       10.4508332747
  H         7.6309650560       -3.6063318374       10.3182216067
  H         6.7531121659       -2.8622779558       11.3329894795
  O        12.3786898594       -2.6383086635       17.8054569551
  H        11.9379641639       -2.1506748857       17.0289813384
  H        11.7828351884       -2.6072744127       18.6150747052
  O        11.2162576554       -5.0593037998        8.4378571559
  H        11.1750664415       -5.6959646894        7.7289488354
  H        11.7530814831       -5.3723016807        9.1959651799
  O         9.7949272508       -2.8608768370        7.1630585818
  H         9.6438680039       -3.7456631809        6.7507178143
  H        10.4803265027       -3.0233693837        7.8138465377
  O        23.3988085402        0.7046672662        7.0786168502
  H        22.8718368503        1.2128804901        7.7476684476
  H        23.8456875380       -0.1677421127        7.3218490316
  O        17.5088008497        3.2254121958        5.1243328598
  H        16.9055607601        3.0956259293        5.9363373768
  H        18.3635494564        2.7263177919        5.2535701663
  O        16.9186095179       -4.8827527932       16.6722060575
  H        17.3680595517       -5.0216485540       15.7917108811
  H        17.0726628970       -4.0686829583       17.1454697421
  O        17.4484513163       -7.1121176629        8.4197163748
  H        16.7453760666       -7.7646660412        8.0347555046
  H        18.1114942131       -7.6390773135        8.9804931622
  O        14.3228013918       -6.4532115849       19.4157574432
  H        13.3703611456       -6.7023738670       19.6230783106
  H        14.2027105579       -6.2754515874       18.4694711669
  O        15.8039512675       -8.5954584677        7.0997986155
  H        15.3827045169       -9.2232525201        7.6884859613
  H        15.1736690443       -7.8037530933        7.1324505715
  O         5.5715333752       -5.5175204462        1.5246978472
  H         6.4105777503       -6.0638834181        1.5317193783
  H         4.8930330622       -6.0970498795        1.0744395383
  O        15.1035669192       -1.5202826307       17.9577186127
  H        14.8715967272       -0.8088321857       18.5652989083
  H        14.2040405768       -1.8018109346       17.7286311497
  O        11.8312308247       -5.0753710383       16.5200636769
  H        12.6549142973       -5.5519089502       16.4591685556
  H        11.9623149481       -4.3674851418       17.1858597963
  O         9.4175992834        4.1567908369        5.6399907439
  H         9.7713385574        3.8017705876        4.8012003031
  H         8.4435477738        4.2115664577        5.5307089890
  O        13.5706697450       -2.4534057381       13.2060341373
  H        14.0356026317       -1.9567877533       13.9214016061
  H        13.9940281419       -2.1542999854       12.3641012678
  O        19.5805561482        1.4146918094        5.9139871236
  H        20.2715942666        1.0984464916        5.3226077411
  H        19.1159247858        0.5739210494        6.2705591117
  O        15.5457907593        0.7471468639        7.4265595896
  H        15.0549192475        0.3487179094        8.1720077864
  H        16.4083489668        0.2168523892        7.3638646280
  O        13.9092803321        0.5560495019        9.7746965845
  H        13.1581991218        0.0702144416        9.3895239695
  H        14.3801579884       -0.1558382367       10.2529162205
  O         9.8071589964        0.6557405176       16.8857647349
  H        10.0248651750        1.5576392274       16.6626757105
  H        10.3175898862        0.6236676680       17.7515683187
  O         7.9216788361       -0.8125588492        8.4865983385
  H         8.5432106852       -1.3544395833        7.9178303980
  H         7.6052895511       -1.3624463688        9.2937276325
  O        22.0080543329       -5.3410968583        5.7914379198
  H        22.5900925828       -5.7181190786        5.1020969902
  H        21.5711191980       -6.0476286305        6.3181067557
  O         8.6851540891       -4.9835068622        9.5307198122
  H         8.8161268303       -5.7538437735       10.1581524252
  H         9.5284247680       -4.9979683980        8.9711257454
  O         4.1333727455       -3.5580421061        9.6307037611
  H         3.8339843481       -3.5249392033        8.6918735067
  H         5.1150933271       -3.2877200914        9.6847098749
  O        10.7147141298        3.6539604499        9.2449134093
  H        10.0396499407        2.9867902158        9.0758558953
  H        11.1979207199        3.2268631014       10.0379056814
  O        13.4570117505        1.5872777870        5.7333237603
  H        12.6982777362        1.3586257693        6.3760064352
  H        14.2830319425        1.1352247255        6.1598027404
  O        12.2493519071       -6.4526288339       12.5841742865
  H        11.4322563082       -6.0086277723       13.0000238387
  H        12.2513087886       -7.3260893426       13.0531948379
  O        10.4331933275       -5.2858747138       14.2219642174
  H        10.9671824356       -5.2279134693       15.0728789593
  H         9.5905445878       -5.8366418050       14.3618380902
  O         2.2150575627       -6.2244886214       16.5596564064
  H         1.9684212896       -5.8652405371       15.6044915857
  H         3.1819430592       -5.9267033963       16.5066460075
  O        18.1675756341        1.4816492488       13.2518512345
  H        17.5607358617        1.9683845534       12.6441712566
  H        17.9229224843        2.0417353395       14.0121431601
  O        10.6967326927       -2.8690883288       12.7749766243
  H        10.4502222067       -3.7727805666       13.1327710767
  H        11.5865795404       -2.5851575116       13.2136649515
  O        19.2340557845       -6.9529067604        4.9730737282
  H        18.4639176042       -7.5868684964        4.9685680277
  H        18.8217801293       -6.2435814026        5.4742511439
  O         4.3276147399       -9.1977458001        2.6862024338
  H         4.2646718194       -8.2665337837        2.3749502931
  H         4.4832146581       -9.0891149062        3.6436080007
  O         9.6795952690       -8.9361793619        0.9301988532
  H         9.2628993005       -9.8849287252        0.8930394102
  H         9.3789068673       -8.5150774878        0.0418682914
  N         8.6748822563       -1.5620003794       14.2880367927
  H         8.6390030924       -0.5817360228       13.8731402882
  H         9.4025881602       -2.1226880657       13.9293605632
  H         7.7766159624       -2.0907081830       14.1780344304
  H         8.8812713701       -1.5309277149       15.2967997301
