     194
 CELL 12.4294 12.4294 12.4294 90.0 90.0 90.0 i =    65620, time =    32810.000, E =     -1097.1537290197
  O         9.1264566521        0.0297480521       10.7700786109
  H         9.4579237736       -0.8811205482       10.6748550203
  H         9.8551665468        0.5746941981       10.9850694145
  O        13.4303717212       -8.9475710539        9.9343186145
  H        12.7772359156       -8.1771544034        9.9878800885
  H        12.9711617261       -9.7758399752        9.8852398195
  O        11.2895355339      -10.6627771108       11.3835805685
  H        11.7441372194      -10.1981544337       12.0776265778
  H        11.9628438404      -11.3922171524       11.1013106499
  O         6.2038753158       -2.8347991961       13.0206854679
  H         5.9867300600       -3.7196141837       13.4134798050
  H         5.4875912162       -2.1334582794       13.1016450746
  O         0.3907453211       -8.6492678405       12.9910008184
  H         0.4928852558       -8.7447073991       13.9360789269
  H         1.2850466493       -8.7330667728       12.5747732840
  O        15.5763755698       -5.8323061734       22.5460607405
  H        16.4352202857       -6.1997915211       22.1600694972
  H        15.6497953023       -4.9740787064       22.1275447491
  O        10.8059274137       -0.3560191940        3.2328938051
  H         9.9706956246        0.0504483629        3.6743796715
  H        11.3768990014        0.4171725395        2.9727186647
  O        15.6909850899        3.7955171067       11.5799405937
  H        14.9927852972        3.7253063289       10.8326095238
  H        15.4712061801        4.6675496893       12.0637900393
  O         7.6718557647       -6.9863278744        1.8940072842
  H         7.9111594739       -7.7950160611        1.4429107941
  H         7.4484020283       -7.2230324943        2.8395901534
  O        11.7267630466       -1.8466560339        8.6252065437
  H        11.1379365747       -2.2367446475        9.3265872767
  H        12.2769022045       -2.6350736581        8.2563311014
  O        12.6367999502       -7.9170572304        3.6567928786
  H        13.5187394479       -7.4234188819        3.7770643545
  H        12.4968391799       -8.6463813977        4.3198781846
  O         7.7783484628        1.7444304022        8.8210788315
  H         7.5726844446        1.5748795386        7.8798434252
  H         8.0846509903        0.8782841224        9.1763853328
  O         4.0922743943       -1.0958229495       13.0581829971
  H         3.4298263973       -1.2283236038       13.8273504065
  H         4.1563173006       -0.0785227145       12.8710421957
  O        12.6601298253       -6.2628553789        9.8272618097
  H        13.7010701874       -6.2990667160        9.9147575432
  H        12.3086154462       -6.0085879145       10.7461867997
  O         9.9532464303       -2.4497748843       10.7178298367
  H         9.2629611924       -3.1247617141       10.5061705800
  H        10.2037647271       -2.6926909801       11.6404963048
  O        14.6463412436       -1.5192953249       11.2368170680
  H        14.9588696320       -2.0951896973       10.4631156260
  H        15.4257772072       -1.2746330073       11.8812192721
  O        13.5284228685       -5.0206714258       14.2096207672
  H        12.8907704432       -5.3784396015       13.5300143466
  H        13.5809765357       -4.0237829347       14.0609692234
  O        14.1313840257        1.9685608737       14.7416871530
  H        14.8595174318        2.6648179903       14.8950210056
  H        13.5478724081        2.0049755669       15.5483797902
  O        11.0945123031        5.1029230026        7.0849177775
  H        10.5668601682        4.9145972057        6.3262911527
  H        10.9357658005        4.3979187205        7.6742962074
  O         7.4240201778      -11.4214376112       12.6639702326
  H         7.8578904196      -11.7890373762       11.8181198498
  H         6.4745276827      -11.6176850547       12.5093586020
  O        14.6491181887       -1.0194562165        2.6492436197
  H        14.7166653082       -1.3621929681        3.5467511576
  H        14.4738510246       -0.0804180238        2.7024174243
  O         8.6819956505        5.1885577194       10.7409914024
  H         8.9979188177        4.7395118219        9.9136768496
  H         7.7618454213        4.8980529209       10.8441545011
  O        17.1231921663       -0.4533450209       19.5185594026
  H        17.8456351827       -0.4253860868       20.1855923558
  H        17.0287264806       -1.3598493592       19.1296327001
  O         5.5683913715       -3.0778094517        5.9917313253
  H         6.1423076743       -2.5893675272        5.2805407447
  H         6.0845177411       -3.7091746308        6.5847570558
  O         7.6893141432       -1.6951329899        4.5708369508
  H         7.9841253522       -2.6687145187        4.7413599917
  H         8.0855794961       -1.1491795824        5.2250236526
  O        15.8481493081       -6.0458683265       12.9335984729
  H        15.8142532241       -5.7898477045       11.9934654442
  H        15.0301024097       -5.5626886322       13.3680434914
  O        18.7920758442       -8.8719778118       10.3580014347
  H        18.0377363634       -9.0334508203       11.0586509237
  H        19.1205880859       -9.7595216477       10.1063877199
  O        13.8896907137       -3.5064895747       19.9192895456
  H        14.2337795316       -3.0939447389       19.1031770411
  H        13.6606329011       -4.5095027381       19.8103411361
  O         6.9473630049       -5.3020064230        7.1558996136
  H         6.2859981187       -5.9722370235        7.4733365334
  H         7.6019722683       -5.1799195144        7.8865463014
  O        10.6963298276       -9.8634521043       15.1904372667
  H        11.2958153169       -9.1278282421       15.1045163751
  H        10.1214479110       -9.7089914738       14.3608056396
  O         6.1818330351       -3.0841345593       10.3358893340
  H         6.8310983746       -3.7472018755       10.0517305349
  H         6.1626293413       -3.0958434937       11.3943438675
  O        11.7642691387       -2.7131543455       17.1404664629
  H        11.3081724274       -2.0919317776       16.5351273734
  H        11.3267862852       -2.6122727860       18.0379437074
  O        10.8675043693       -4.8542501843        8.2540152800
  H        10.7669470691       -5.4291115725        7.4323487923
  H        11.5083979591       -5.3444108136        8.8079093639
  O         9.0891454200       -2.1463214315        7.1572736856
  H         9.1358278395       -3.0817965752        6.8979765078
  H         9.9518958900       -1.9462886871        7.6224621204
  O        23.0680886523        0.9999656330        7.3349743662
  H        23.1205734720        1.8919506313        7.7713065596
  H        23.0847759210        0.2788108463        7.9842787027
  O        17.3963694038        3.4293748084        5.2271726638
  H        16.6797545328        3.8233621478        5.7974679047
  H        17.9290377994        2.7851300085        5.7371481426
  O        17.0937193813       -5.0646304469       16.7619934659
  H        17.4398209182       -4.8676050903       15.8747398189
  H        17.1733750099       -4.2534412275       17.2984145679
  O        17.6405251652       -6.9863215847        8.5254631968
  H        16.8063981355       -7.3744075878        8.2191471444
  H        18.0963986064       -7.6569659929        9.0750920354
  O        13.7813901075       -6.1763264366       19.2425173717
  H        12.8744842433       -6.5332288693       19.0183840644
  H        14.1097151116       -5.9094879936       18.3978256862
  O        15.2904709797       -8.5573772567        6.9284559043
  H        14.9702302889       -9.1497743776        7.5675379694
  H        14.7515807933       -7.7475886018        6.9199375336
  O         5.5952972514       -5.0777854628        1.7141908126
  H         6.3220115677       -5.7332992742        1.6478684665
  H         4.7180123232       -5.4436188259        1.3923082140
  O        14.2112088797       -1.5057532629       17.7914844146
  H        14.1783163694       -0.6300487209       18.2992585810
  H        13.2919298114       -1.7224598314       17.3908175280
  O        11.1224849500       -5.3774782379       17.0104887090
  H        11.6437298125       -6.1367499247       16.6883826126
  H        11.5196595632       -4.4652766304       16.8663149689
  O         9.6434951947        4.4867154692        4.9498605973
  H         9.9310884985        4.4196283791        4.0123272485
  H         8.7528030257        4.7739554766        4.8624141828
  O        13.1769930993       -2.4496038778       13.2160130733
  H        13.2159474614       -1.7163740786       13.8801455975
  H        13.6593689751       -2.1586860641       12.3816106578
  O        19.2160166236        1.4002602394        6.2629085219
  H        19.9407462491        1.2399747602        5.6697761776
  H        18.6015478575        0.6904952398        6.2019166972
  O        14.6359038095        0.7004057608        7.4029826961
  H        14.3082795731        0.6892283766        8.3669736941
  H        15.4534848979        0.0793172341        7.4961480992
  O        13.0515001102        0.3431904148        9.9263072961
  H        12.7140685494       -0.2992657345        9.3524391462
  H        13.7277230904       -0.1254181572       10.4696765345
  O         8.9839905830        1.0848389296       17.3048297683
  H         9.1706700942        2.0129521672       17.0311435657
  H         9.7309149984        0.9070254719       17.9637281494
  O         6.9349522458       -1.0016072287        8.5515549311
  H         7.5307660238       -1.5031797221        7.9460725891
  H         6.7500319162       -1.6273545217        9.2967035964
  O        21.0995377827       -4.3175662730        5.4201728439
  H        21.7814180774       -4.8525760954        5.0492185991
  H        20.4871149655       -4.8624812032        5.9398026352
  O         8.5535829459       -4.8358943170        9.3915695617
  H         8.5693237621       -5.7263847712        9.8374413057
  H         9.4657456348       -4.7452378563        9.0141238571
  O         3.2218878976       -3.1786547663        9.4125966660
  H         2.7334562377       -3.0994508187        8.5470945467
  H         4.1708388231       -2.9374469435        9.3855771742
  O        10.1039054597        3.1682610566        9.2292512382
  H         9.2132232258        2.7477614669        9.0509107855
  H        10.4484120536        2.5759090518        9.9251302111
  O        12.7856085991        2.0146391477        5.1975908183
  H        12.0681099048        1.5819943787        5.7732323712
  H        13.5241465594        2.1324392076        5.7491775264
  O        11.6895045774       -6.2452599474       12.4362095890
  H        10.8246566419       -6.2439746202       12.9119246145
  H        12.1142985768       -7.0921014021       12.6766450131
  O        10.0266572397       -5.3833847534       14.3597162921
  H        10.3175728139       -5.3662485217       15.3496720342
  H         9.1263105670       -5.8134333399       14.4627994739
  O         2.3535134343       -6.2864534427       16.4230207726
  H         1.9437363021       -5.6570836531       15.7989659031
  H         3.2780870184       -5.8224999843       16.6618459397
  O        16.8867489782        1.5679279139       12.8147142253
  H        16.4657115838        2.3591287728       12.3724383696
  H        16.8930896046        1.7969073274       13.7570082509
  O        10.6469847729       -2.8826721466       13.2652645595
  H        10.5727670081       -3.7843041054       13.5462721414
  H        11.5678869067       -2.6329340238       13.0922069467
  O        19.4190022407       -7.2280211387        4.5900001370
  H        18.5734225862       -7.7576317234        4.7545100101
  H        19.1178070396       -6.3536684459        4.7735442867
  O         4.0974279328       -9.0948417232        2.7027916299
  H         4.2955961870       -8.2622996759        2.2813950255
  H         4.3616892407       -9.0125121976        3.6508259782
  O         8.8737271771       -9.1392756399        0.6393559433
  H         8.1569884880       -9.8358818612        0.4858975344
  H         9.2192733574       -9.0158916004       -0.2725181308
  N         8.4124492216       -1.3494552105       14.1248105760
  H         8.2861284020       -0.4088556551       13.7926743043
  H         9.2770376466       -1.8777199248       13.8473124796
  H         7.5423562909       -1.8806244619       13.6898284956
  H         8.2905198324       -1.4033309444       15.1722269158
