     194
 CELL 12.4294 12.4294 12.4294 90.0 90.0 90.0 i =    71620, time =    35810.000, E =     -1097.1175338273
  O        11.3614246285       -0.2700004925       12.3215537524
  H        11.8378727391       -1.1275205498       12.1438488977
  H        12.2248432825        0.3654815352       12.4693882069
  O        16.4475629951       -9.8302353953        9.8265653599
  H        15.7182093602       -9.1941797035        9.9147827728
  H        16.0485649691      -10.6603872412       10.1334459530
  O        13.6015262488      -10.9100227097       12.5385138469
  H        14.1579519348      -10.4759206945       13.2871248189
  H        14.2242178461      -11.3677799465       11.9401381498
  O         8.8478050787       -3.0761834301       13.3247480389
  H         8.7432759228       -3.8827378512       13.9314676539
  H         7.9761567318       -2.5936848590       13.3339426479
  O         3.5467428743       -9.3544254153       13.3685908010
  H         3.5649697351      -10.0181469277       14.0156304946
  H         4.4316185333       -9.4298814089       12.9854935019
  O        17.9928050422       -5.9343527744       23.0163017301
  H        18.6077116732       -6.4830551121       22.4112185303
  H        17.8313390321       -5.1002276350       22.5362544373
  O        13.0285386182        0.1384412805        2.6754702067
  H        13.1113694589        1.0693976803        2.7001360238
  H        13.5653353083       -0.1539480639        1.8549019155
  O        18.3280543882        3.1956188883       11.6766166503
  H        17.8827146339        3.1977117124       10.7726479661
  H        18.8490682406        4.0288821797       11.6711451412
  O        10.7918253043       -6.6130851391        3.2433830710
  H        10.6890609218       -7.5210636469        2.8496883964
  H        10.3719587759       -6.8507779293        4.1679130897
  O        14.0058643783       -1.7806336780        9.4446100115
  H        13.3506452580       -2.1565920209       10.1558676578
  H        14.7171938954       -2.4630046126        9.2916424469
  O        15.2600107880       -7.9865703225        3.8196345027
  H        15.8210063554       -7.9727557395        3.0333940085
  H        15.8588133598       -7.9569486620        4.5731948903
  O         9.7962750262        0.5531846253       10.1004848008
  H         9.8569161077       -0.1645072142        9.3978919609
  H        10.3722870921        0.3204215542       10.8721321297
  O         6.5778962216       -1.6588055578       12.8581620107
  H         5.9759368546       -1.5759490167       13.6756642992
  H         6.9462534356       -0.6498188410       12.7350105517
  O        15.4032895925       -6.8348558200       10.0198793280
  H        16.2488729924       -6.5531400870       10.3745538900
  H        14.7720657910       -7.0200563040       10.7252685395
  O        12.3011788622       -2.5527792809       11.4828558673
  H        11.3423145198       -2.8775376177       11.3146209951
  H        12.6255952227       -3.1529996357       12.2655339375
  O        16.6992557910       -2.1287062310       11.6916825105
  H        16.9581072501       -2.7067991556       10.9488302708
  H        17.6220420862       -1.8799273823       12.0318054890
  O        16.4772362637       -5.1265333737       13.7191351155
  H        15.8327396342       -5.6856168871       13.2221774939
  H        16.9049890746       -4.4833048891       13.0775605236
  O        16.3631552286        1.3430321392       15.7012469348
  H        17.1346253951        1.8298234136       15.5804720249
  H        15.8879477593        1.6427462492       16.5144105431
  O        13.2591873289        4.8540705654        7.2455309079
  H        12.8507308134        4.1813214765        6.6570805943
  H        13.4424602531        4.4756020553        8.1240061211
  O         9.6652344243      -11.4334436708       14.0917503952
  H        10.2605850860      -11.9091456527       13.4522487952
  H         8.7335656904      -11.5476166054       13.6981671571
  O        16.9095920999       -1.4803403522        2.8271529116
  H        16.5854760465       -1.9414514812        3.6652676918
  H        16.9480644637       -0.5713289083        3.2244933926
  O        10.9622563084        4.9801423699       11.4861932265
  H        11.7871521798        4.4937301769       11.1059334120
  H        10.1742597035        4.5552298933       11.0177717482
  O        19.3275989266       -1.7448253486       20.2751609163
  H        20.2511790313       -1.5530179874       20.6411968875
  H        19.5271456486       -2.6512845147       19.8251514196
  O         7.4067157714       -3.9143937212        6.1843104143
  H         8.0483957766       -3.5369830892        5.5656749998
  H         8.0497410323       -4.6494300481        6.4783237417
  O         9.9051111767       -2.5748636086        5.1116954851
  H        10.6169314510       -3.1443991218        5.5090670566
  H        10.2549097451       -1.6786396276        5.3623242978
  O        19.5033246106       -7.0655691722       12.7898276154
  H        19.1331605155       -6.4048253638       12.1795849078
  H        18.7695091349       -7.2998935645       13.4667450430
  O        21.4568797796       -9.3259164923       10.6963842840
  H        21.2689140207       -9.5789714582       11.6669540585
  H        21.7125904362      -10.2209557604       10.3610984888
  O        15.5759529768       -3.5833176985       19.9495908803
  H        15.5279568293       -2.9955930125       19.1782310607
  H        15.7832842934       -4.4921248223       19.6600244514
  O         8.9562100424       -6.0473349817        7.3839044446
  H         8.2803313649       -6.4620815945        8.0145775413
  H         9.6251449169       -5.6759598943        8.0232204096
  O        13.1233268976       -9.6097030763       15.6299398812
  H        13.9226366706       -9.0930195540       15.8168334795
  H        12.5763065531       -9.1761526739       15.0234778972
  O         9.8165598123       -3.5318378433       10.7342604937
  H        10.1690433621       -4.2939640541       10.1960358800
  H         9.3936057597       -3.6540892601       11.6155418056
  O        13.0388445173       -1.6841840112       17.0804922463
  H        12.7990250483       -0.9792641188       16.3672957581
  H        12.6827802176       -1.5965610482       18.0210156682
  O        13.7329134162       -4.5825079049        9.3668621420
  H        13.9706444975       -4.1233704829        8.5407697618
  H        14.4578846622       -5.2430277673        9.3779693296
  O        12.1976302771       -1.9459240763        7.4663136031
  H        12.3317506065       -2.9247015880        7.3311706206
  H        12.7965970214       -1.6059266742        8.1739942836
  O        24.3157092113        1.7581186244        8.6937190422
  H        24.0074868055        2.2144307331        7.9260176995
  H        23.4985337127        1.4360218452        9.1667293632
  O        19.7696924587        3.3152827032        5.1627826115
  H        19.1554666762        3.9631048780        5.6509255132
  H        19.6825576161        2.4654644630        5.7484781843
  O        19.1662846184       -6.1890041667       16.8626607416
  H        19.9588260125       -5.7705810977       16.4551251941
  H        18.7634735797       -5.5258392874       17.4643467520
  O        19.8962990550       -7.4889574962        9.1183334662
  H        19.1441124745       -7.9833003439        8.7243298104
  H        20.5067939189       -8.2075718845        9.6664388629
  O        15.6782615585       -6.2186432771       19.1528416627
  H        14.8278375505       -6.7496261750       19.3384746132
  H        15.7413134948       -6.0633059440       18.1627071271
  O        17.6565069726       -8.3063630641        7.2754064866
  H        17.1484540309       -9.1011633752        7.5246392372
  H        16.9951114129       -7.6155692953        7.0537114036
  O         8.6475009239       -5.3500022850        2.3303372501
  H         9.5206460227       -5.8586068918        2.5330411179
  H         8.1161556122       -5.9525106758        1.6806130831
  O        15.6559121619       -1.9072822025       17.6508990968
  H        15.6579851296       -1.1262071692       18.2713487911
  H        14.6979957023       -1.8685025453       17.2616303968
  O        16.2280209479       -4.9096279049       16.6910229926
  H        16.2743353993       -4.9069785107       15.7421772590
  H        16.6377326723       -4.0457215657       16.9118854199
  O        11.7575802694        2.7443261078        5.7865485500
  H        12.0448810306        2.6706031581        4.8348313440
  H        11.0768109542        3.4496709631        5.7574109730
  O        14.8744313072       -1.2030676544       13.5954115150
  H        15.5661036663       -1.1967210165       14.2585618012
  H        15.1481701660       -1.4243143451       12.6932215686
  O        20.0844657555        0.6282300950        5.9912034824
  H        20.7493756956        0.6455818257        5.3017864395
  H        20.0336683607       -0.3133393950        6.3805030603
  O        16.4578443974       -0.2414120865        7.5125251210
  H        16.3050339519        0.1731368496        8.3476590675
  H        17.3321792595       -0.6891017166        7.5051042767
  O        15.5326519131        0.1525007871       10.4778389730
  H        14.9089141102       -0.5605063992       10.1203351370
  H        16.1368221314       -0.4075055349       11.0377708917
  O         9.8555141429        0.2311444876       16.9843321540
  H         9.7416783513        0.4971912728       16.0160925364
  H        10.5908267830        0.8219092679       17.2565804216
  O         9.5805219151       -1.8355402846        8.7165263880
  H        10.3170414178       -1.8066357886        8.0347502426
  H         9.5855441730       -2.5666219388        9.3645223902
  O        24.6274655637       -4.6963513791        6.2805953448
  H        24.9325814889       -5.1042937200        5.4548333237
  H        24.9495877475       -5.3572322116        6.9121168516
  O        11.2338363855       -5.5234746061        9.6479532669
  H        11.1446108004       -6.3181092524       10.2088898579
  H        12.1796745388       -5.2028789717        9.5477687010
  O         5.1332720739       -3.3103213405        9.4971661060
  H         4.4604775935       -3.3542933075        8.7852556230
  H         5.9449214158       -2.8571119482        9.2144295228
  O        13.1823922624        3.5017520604       10.6732135802
  H        12.7944939230        2.7939530713       10.0926145881
  H        13.4811872118        3.0740403931       11.4708257042
  O        15.4157950068        2.3180571553        5.7072385147
  H        14.5346659733        2.4949475379        6.0143016420
  H        15.7011638613        1.5738357682        6.2418032074
  O        14.4213687386       -6.7983841027       13.0079915935
  H        13.8937006904       -6.2202747844       13.6389680868
  H        14.6009889498       -7.6936704154       13.3505193898
  O        13.3215269714       -5.8068519478       15.5969296197
  H        13.8607531183       -6.5870681800       15.8587069470
  H        12.3841306397       -6.0293188486       15.5540129435
  O         5.4223588357       -7.2474281281       14.8017392556
  H         4.8998613164       -6.4460317197       14.4459311421
  H         5.8918937904       -6.8731485182       15.6133819594
  O        19.4821335790        1.1378040918       13.0863444702
  H        19.1805667570        1.7225281619       12.3841731076
  H        19.2778251451        1.6191149191       13.9138889717
  O        13.1147805823       -3.3645697955       13.7837045246
  H        13.1227968123       -4.1451433149       14.4065212488
  H        13.7646191462       -2.6646951121       14.0267529942
  O        22.1410491213       -7.6009664282        5.4032370392
  H        21.2860904333       -8.1783139392        5.3219829356
  H        21.8705651678       -6.9722160670        6.1954298497
  O         6.2133768854       -9.8046510200        2.7826727523
  H         5.8743202264       -8.9177294997        2.5262869730
  H         6.6703973106       -9.6435372281        3.6475733136
  O        10.8160562386       -8.8531822941        1.5981529440
  H        10.2800202946       -9.6977353874        1.5187581019
  H        10.7051442524       -8.4028866733        0.7260947427
  N        10.8391879740       -1.9588204906       14.8018720922
  H        10.9593259555       -0.9505289366       14.7368787131
  H        11.7021344734       -2.3828598963       14.4896995117
  H        10.0380530292       -2.4193849690       14.2001735979
  H        10.6771028555       -2.2023864349       15.7766682544
