     194
 CELL 12.4294 12.4294 12.4294 90.0 90.0 90.0 i =    69220, time =    34610.000, E =     -1097.1526549374
  O        10.7228760732        0.4163477328       11.2523269844
  H        11.1457240971       -0.4560180699       11.1539422503
  H        11.4840373705        1.0397632741       11.0081526526
  O        15.4498343049       -8.4917537359        9.0141159060
  H        14.7336837675       -7.8152255475        9.0912749564
  H        15.0533588307       -9.2990438234        8.6744803002
  O        12.8983851415      -10.4854279583       10.7258549553
  H        13.1788076341      -10.0540332698       11.5605133227
  H        13.6556542019      -10.9842530029       10.3727025232
  O         7.3293214418       -3.3287421726       13.1762514010
  H         7.0310907658       -4.1449911088       13.6989103665
  H         6.7102841094       -2.5963571838       13.4207108978
  O         1.6545213624       -9.2714593997       12.8649090085
  H         1.9369182637       -9.7828042729       13.6652479628
  H         2.5222868794       -9.2388583455       12.3715854308
  O        16.9654071188       -5.4380321369       22.9727861677
  H        17.6235126544       -6.0141465858       22.4305853879
  H        17.2647172864       -4.5388635892       22.7084770532
  O        12.5427919000       -0.5048878217        2.9261350195
  H        12.3258757065        0.4184287044        3.0609713256
  H        12.9758277611       -0.6194147339        2.0993518506
  O        16.6468463178        3.5364446396       11.5076666559
  H        16.4515352415        3.6613541611       10.5213753256
  H        16.9641813186        4.3564247712       11.9626775773
  O         9.0431448158       -6.7515629260        2.9408369579
  H         9.1223953184       -7.5245263084        2.3307203928
  H         8.7507229506       -7.1652107583        3.8419147830
  O        12.9496457600       -1.4564838082        8.5717197916
  H        12.2867896758       -1.9309506059        9.2168278921
  H        13.6513532598       -2.2682468533        8.3955976503
  O        13.8556584965       -9.1542814094        4.3777037764
  H        14.5381760210       -8.4177091640        4.2054381167
  H        13.7814069282       -9.3379196840        5.3666170008
  O         9.4975290194        1.7029344481        8.7261666853
  H         8.9360126866        1.5669811463        7.9963258971
  H         9.4831387236        0.8715104781        9.1801726057
  O         5.5559456839       -0.7178647498       13.6173094185
  H         4.9392489870       -0.6648188329       14.3694582441
  H         5.6947764344        0.1629135103       13.1472730797
  O        14.2661680831       -6.1701822678        9.9009974235
  H        15.1568342372       -5.7437053377       10.1303851150
  H        13.9214693550       -6.3861342591       10.7993386365
  O        11.5157747469       -2.2109600493       10.6819587443
  H        10.5116139168       -2.3983415144       10.8169208757
  H        12.0103053460       -2.5364141908       11.4686976890
  O        16.0759744963       -1.5414874594       11.7501798729
  H        16.4302180658       -1.9882113404       10.9604303259
  H        16.8707117004       -1.3500862181       12.3848477863
  O        14.9140865222       -5.9394860296       13.9998722314
  H        14.2072721750       -6.1733922243       13.3456582375
  H        15.0146076333       -4.9001030433       13.9560973724
  O        15.2994723420        1.6512802844       14.9584804485
  H        16.2612172126        1.9815068104       15.0007419397
  H        14.9794018324        2.0869479009       15.7688592664
  O        12.3225825212        5.3428927017        6.9035972077
  H        12.0314764322        4.5778557762        6.2863862261
  H        11.9288654193        5.0781815930        7.7616413461
  O         9.2339643868      -11.5002507889       13.4392021951
  H         9.8042711763      -11.6289207905       12.6602865661
  H         8.3324278414      -11.4229707417       13.0301601070
  O        16.0172049979       -0.9440485129        3.1254663140
  H        16.0285944201       -1.2737799533        4.0257290056
  H        15.3834729625       -0.2205025054        3.1325836992
  O         9.9017857978        5.1788411652       11.0832857780
  H        10.6154669505        4.6877938761       10.5924493275
  H         9.1702275458        4.5558217237       10.8989930405
  O        19.1426615335       -1.1072663007       20.1368054574
  H        20.1164886592       -1.0472228020       20.4136828847
  H        19.2132294950       -2.0472927552       19.6779069315
  O         6.7725147171       -3.6289104249        6.4069918170
  H         7.2719090730       -3.3677063628        5.6299567309
  H         7.2095391095       -4.4040296849        6.8710373183
  O         9.0687919760       -3.0070396236        4.3721955110
  H         9.9668989745       -3.3270294685        4.3813407300
  H         9.0578932416       -2.2747074842        5.0552193767
  O        17.4799271558       -6.7318168255       12.8493425367
  H        17.4055206673       -6.0941279819       12.0116483564
  H        16.5350035470       -6.5943790063       13.2427910246
  O        20.3598306989       -9.3354414916       10.8936450899
  H        20.0288295858       -9.9777914437       11.6322955516
  H        20.7765319351      -10.0168202953       10.3041087653
  O        14.8942597804       -3.2476994283       20.3581196535
  H        15.2324376356       -2.7507504265       19.5247622177
  H        14.6293095468       -4.1261422807       20.0985900365
  O         7.9846733766       -5.8931608308        7.7987140666
  H         7.5086705970       -6.3840828838        8.5912989408
  H         8.7493432444       -5.4111691300        8.2589892702
  O        11.7470204374      -10.3656809935       15.7627650448
  H        12.5523383789       -9.8632968025       16.2663510977
  H        11.4346611735       -9.7137257991       15.1281914794
  O         8.7950138514       -2.7573980659       10.5055537567
  H         9.0966798398       -3.6470353311       10.1759224507
  H         7.9997066069       -2.8503991503       11.0658212817
  O        13.1696367354       -2.2240915973       17.3167803943
  H        12.8714239618       -1.6522613468       16.5192489536
  H        12.4987009038       -2.3185268341       18.0535124464
  O        12.4079095432       -4.6919473223        8.5298145466
  H        12.5259055790       -5.3872346383        7.8491601343
  H        13.0998799167       -5.0009182624        9.1605632405
  O        10.9521513635       -3.0851005503        6.6737981187
  H        10.7948508776       -3.8563898422        6.1172472629
  H        11.4150933163       -3.3623055169        7.5011745379
  O        24.1676829586        0.5333688939        6.8098028275
  H        23.4966304022        1.1737605056        7.1036237546
  H        24.4051083098       -0.1890583269        7.5682433121
  O        18.7295869773        3.0662138529        5.1324834552
  H        18.2070519748        3.3759342187        5.8925684698
  H        19.2499328150        2.3228567584        5.5034823056
  O        18.0083851264       -5.6739825996       17.2775417085
  H        18.4208632140       -5.6076971473       16.3745463133
  H        18.0694871650       -4.7845038661       17.7080323838
  O        18.8840963274       -7.3840238928        9.4870973113
  H        18.3598905418       -7.4101833538        8.6827553977
  H        19.3090719940       -8.2601113293        9.5616381500
  O        14.8288661834       -5.9873455797       19.1025633651
  H        13.9864567711       -6.4400537739       19.1555070869
  H        14.8387751983       -5.6130026431       18.2238832942
  O        17.4926200188       -7.6161166428        6.9771394093
  H        16.7008224799       -7.8817815150        7.4812380730
  H        17.3379690832       -6.7259137365        6.5543937056
  O         6.5789439047       -5.5367377374        2.2972209671
  H         7.4773505650       -5.9394541130        2.4161222914
  H         6.0100141587       -6.1303005886        1.6563128322
  O        15.5488671918       -1.5513133900       18.2120211345
  H        15.6451304352       -0.8352060448       18.8320857554
  H        14.5924088744       -1.6652996585       17.8542283110
  O        13.4887336582       -4.9640986358       16.6947440979
  H        14.2039247378       -5.0998912285       16.0607554283
  H        13.3873981259       -4.0020512884       16.9078292144
  O        10.8966201285        3.1938708592        5.7599406526
  H        10.7304808060        2.7340981627        4.9052720521
  H        10.1391908353        3.8739734489        5.9387179730
  O        14.8786274127       -2.9267053500       13.9764646648
  H        15.3850432187       -2.5841116515       14.7863995608
  H        15.2075053191       -2.4179502840       13.0951199286
  O        20.2071252181        1.0911471356        6.2341370829
  H        20.9770782760        0.6316942808        5.7916795977
  H        19.5316233944        0.3884162903        6.5294990128
  O        16.2789941909        0.5497963908        7.4220738499
  H        15.9088545736        0.3869845780        8.2740521783
  H        17.1379574725        0.1442232748        7.3336204782
  O        14.7328424437        0.0974462372        9.7708017061
  H        14.0235198392       -0.4524918108        9.3388473183
  H        15.1123276278       -0.3747872939       10.5809387904
  O         9.6396484350       -0.1833493319       17.3504593812
  H        10.0085423454        0.2453727673       16.5528318211
  H        10.4320310228       -0.2988536173       17.9801632007
  O         9.3164605959       -1.1699950934        8.1722507051
  H         9.6951914219       -1.7727767655        7.5079884324
  H         9.1597120809       -1.5964307723        9.0373915068
  O        23.1372065103       -5.2422835831        5.2163769402
  H        23.8426559435       -5.8386862616        5.4561156764
  H        22.3796154448       -5.8592432515        5.1228481423
  O         9.7451814456       -4.9769334512        9.6976389253
  H         9.7643151819       -5.8259319340       10.3237633375
  H        10.6889404630       -4.6922463136        9.5910454565
  O         4.8681286883       -2.7625717545        9.3881008154
  H         3.9733789360       -2.7205821772        8.9154525833
  H         5.5494578316       -2.1963691657        8.9758471850
  O        11.5480471323        3.9362590430        9.1836330611
  H        10.8867711936        3.3372341421        8.8278577964
  H        12.2580302829        3.2583600204        9.4703989160
  O        13.9969356094        2.3215851594        6.9633090641
  H        13.3001565659        1.6304055924        6.9187940055
  H        14.8142483502        1.7978427404        6.7909720253
  O        12.8809061945       -6.6525403952       12.2635162823
  H        12.1332089923       -6.5027683172       12.9100000711
  H        13.1805905590       -7.5802016420       12.4179520953
  O        11.4594335016       -5.7615855476       14.3367734730
  H        11.9385467431       -5.6662830195       15.1863498401
  H        10.5556168864       -6.1285243235       14.5569862426
  O         3.4992748711       -7.4255760175       16.1015619576
  H         3.0511881671       -6.9049905990       15.4452342244
  H         4.1660029431       -6.8544225115       16.5520032600
  O        18.7192264583        1.7826466660       12.6136495593
  H        17.9830607599        2.2962861219       12.1960754665
  H        18.7292771178        2.1994611906       13.5888861044
  O        12.1660854613       -3.2404713953       13.3762330712
  H        11.6987522331       -4.1045431195       13.6470603580
  H        13.0663415736       -3.2816970227       13.8539973600
  O        20.9665707232       -7.6864473216        5.4711785098
  H        20.1347732124       -8.2862475428        5.4671578284
  H        20.8137758426       -7.0061004326        6.1590021539
  O         5.6198409227       -9.6116421746        2.6333585482
  H         5.3310705943       -8.6620850556        2.5714727221
  H         5.8660896745       -9.6179927774        3.6704168927
  O         9.8975652203       -8.8472915255        1.2352996089
  H         9.3443958146       -9.6302130761        1.3748982981
  H         9.8498554043       -8.4831910628        0.3286092456
  N         9.5323106500       -1.8663144000       14.2698129582
  H         9.3168308392       -1.0282555320       13.7223038172
  H        10.5555126365       -2.0777756732       14.2930768728
  H         8.9960484532       -2.5963088615       13.7384818755
  H         9.0645776778       -1.8055108757       15.2196258910
