     194
 CELL 12.4294 12.4294 12.4294 90.0 90.0 90.0 i =    80420, time =    40210.000, E =     -1097.1327254549
  O        15.2609379051        0.8763135467       12.3187673709
  H        15.3150799637        0.0870409223       11.7741054598
  H        15.7749590341        0.7054197412       13.0777539684
  O        21.0481069369      -10.6380483999        9.7604552302
  H        20.3852515754      -10.5390944676       10.4499666675
  H        21.0700316016      -11.5982140377        9.5263487787
  O        18.8782399305      -10.5956666904       11.3894846807
  H        19.1786540190       -9.8264131741       11.9668632434
  H        18.8263923046      -11.4266337703       11.8875048563
  O        12.2670201465       -2.8505343077       12.9803958820
  H        12.2222785365       -3.4141996376       13.8683012157
  H        12.0469571805       -1.9664090573       13.2783265220
  O         7.5369020202       -8.4775001095       12.8194848068
  H         8.1284687604       -8.8990286410       13.4623146549
  H         8.1034255105       -7.9854491611       12.1929705048
  O        24.0479454130       -7.0294721318       23.9545789450
  H        24.9659339113       -7.4559221050       23.8577679028
  H        24.0430840437       -6.1929487433       23.4429020449
  O        17.3961037705        0.0451197576        2.5838740096
  H        17.4557892672        1.0442863155        2.7133266652
  H        17.7650689054       -0.0445806228        1.6805677494
  O        23.3235787804        2.4267833741       11.1096080130
  H        22.5364057509        2.2879010832       10.4539186685
  H        23.5307939323        3.4403811868       11.0508640080
  O        14.2672488022       -6.7228230439        3.3861031425
  H        14.2884321570       -7.3281661981        2.5985282994
  H        13.7840290729       -7.1771010238        4.1628878840
  O        17.3014515252       -2.3996560577       10.1303480507
  H        17.6516021732       -3.2889522531       10.5245867866
  H        18.0971197310       -2.0613701764        9.6106805604
  O        19.0234861805       -8.1712199388        3.6332804742
  H        19.5238586702       -7.3087346850        3.7702162078
  H        19.7076268792       -8.8509157492        3.8645189315
  O        15.3688927851       -0.0264385474        9.3479868453
  H        14.5621492497       -0.5553438277        9.0314727440
  H        16.0372610013       -0.7434528896        9.2034608812
  O        10.0072315772       -0.7186133654       13.6064699268
  H        10.0339925137       -1.1953885238       14.4642325163
  H        10.3244943103        0.2133201466       13.7016230770
  O        20.7488406410       -6.3826591402       11.0385456016
  H        21.5286883957       -5.8630484067       10.6892405660
  H        20.3509909951       -5.8043428337       11.7354152958
  O        14.8832466381       -1.9794972118       11.9700220767
  H        15.3244430416       -2.4001819981       11.1833761561
  H        14.0126101593       -2.3887103917       11.9712678538
  O        20.7628187840       -2.1394206364       11.8091853688
  H        21.1523509242       -2.9022982612       11.2776683919
  H        21.4954254228       -1.7033402555       12.2113236723
  O        20.3737118006       -4.6718603244       13.4064779600
  H        19.7227138565       -4.7258705030       14.0572143112
  H        20.3985710500       -3.7452793795       13.1050495295
  O        20.2953961161        1.1264220403       14.0727984291
  H        20.3282663437        1.4741732513       15.0076883821
  H        20.8666926944        0.3390406848       14.0945020049
  O        18.6778781835        5.5318231994        9.3958984337
  H        18.1782220106        4.7277187314        9.6979642885
  H        19.5767013184        5.5765901008        9.9119707584
  O        12.9971537790      -12.1573296865       13.9015129609
  H        13.7132656136      -11.8694477362       13.2587182852
  H        12.2250968429      -11.5791269786       13.8879205385
  O        21.8068757644       -2.0710597198        3.9247359451
  H        20.8081752480       -2.0365557824        3.9814348516
  H        22.1643710886       -1.2944681462        4.3883390563
  O        14.1262219495        4.2204204063       11.1800256292
  H        15.1141283146        4.2579263844       10.9087192719
  H        13.7999921222        3.4743222690       10.5680785843
  O        24.0002560982       -1.8071870069       19.3138623661
  H        24.9348244490       -1.9652336993       19.6899567712
  H        23.7979548966       -2.6343263108       18.8160467732
  O        14.2476271968       -2.7504653665        4.7416604242
  H        13.8207650190       -1.8356650726        4.7932046633
  H        13.8431001967       -3.4523828619        5.2949876959
  O        16.7316123662       -1.5296146688        5.8531192248
  H        16.4741654949       -2.1213979325        6.6514845468
  H        15.9474625643       -1.6271101137        5.3066088470
  O        22.5633209105       -6.1646121313       14.1170833466
  H        22.7946264928       -6.3646431332       13.1998900184
  H        21.6781291892       -5.7984843129       13.8561935030
  O        25.8440942009      -10.3964549310        9.8603720360
  H        24.9957847723      -10.5061744733       10.4250031257
  H        26.3968690417      -11.1113671727       10.2056397733
  O        22.1334866647       -5.2265596038       19.7320058491
  H        22.4224641022       -4.7356216669       18.8840448046
  H        21.2808500749       -5.6894860349       19.6223375192
  O        13.2626161048       -4.5148952984        6.7474950226
  H        12.4840583027       -5.1522792584        6.7047957164
  H        13.9975891607       -5.1290916483        7.0386705626
  O        16.8897094890       -9.7498038918       15.4135461925
  H        17.6055109076       -9.0600755793       15.5943711172
  H        16.1654824449       -9.3158934632       14.8266103576
  O        12.3845294663       -3.6545932376       10.4771222858
  H        13.2116673681       -4.1505478619       10.3110912823
  H        12.3091090383       -3.3402623322       11.4343074399
  O        18.3391549184        0.5401584303       19.1214684690
  H        17.6519122734       -0.0712728235       18.8186723732
  H        17.8456054542        1.1456466350       19.7422737775
  O        17.7533343741       -4.9421525361       10.9913009172
  H        18.2030355714       -5.5434575736       10.3010058979
  H        17.6156453619       -5.4168193070       11.8515245748
  O        16.1620154290       -3.2187248294        7.9537273126
  H        16.3521641032       -4.1943305579        7.8014952466
  H        16.4417903008       -2.9484311831        8.8758357359
  O        28.7023248451        2.0458458851        7.9006407707
  H        28.3551640825        2.0013437857        6.9992523622
  H        28.3278361751        1.3357906234        8.4983418175
  O        23.3361455494        2.4232766859        4.9724789918
  H        23.1356797663        2.6795764562        5.8961895137
  H        23.4746074772        1.4136369081        4.9298488687
  O        22.7893147427       -4.3332506759       17.3931861902
  H        23.5852504638       -4.6203841211       16.8534092384
  H        22.4455753399       -3.5334143388       16.9194060635
  O        24.7804546817       -8.6389180225        7.9952783623
  H        23.8235756325       -8.7803178987        8.0709811052
  H        25.0836314777       -9.4882922095        8.4238622311
  O        19.9463970567       -6.9959833205       19.1074019786
  H        19.4370226021       -6.8590228445       19.8637822727
  H        19.5558510706       -6.4720348354       18.3925875905
  O        21.9864723088       -9.1333131206        7.3534469700
  H        21.4370721233       -9.5117505952        8.0616912813
  H        21.5442966702       -8.2926065417        7.2608686005
  O        12.1327394598       -4.5397924733        2.7909651257
  H        12.9083100843       -5.1021855575        3.0485958714
  H        11.4816714597       -5.1581093958        2.3096757117
  O        19.1320571448       -1.5961838077       20.6557048252
  H        20.0977396940       -1.4126829404       20.8520737805
  H        18.7829985486       -0.8221429612       20.1337500619
  O        19.2003103277       -4.0036077354       18.8541673455
  H        20.1341393796       -4.1213334981       18.9926813892
  H        18.8808603080       -3.5750744469       19.6821843775
  O        15.1891857782        2.0373712684        5.2500104733
  H        15.9617750025        2.2597913535        4.6469267938
  H        14.5605631021        2.7814728334        5.3410095585
  O        19.1660888909       -1.9180658110       16.6374966373
  H        18.7904350147       -2.2063625324       17.4855319671
  H        18.8112695196       -1.0558679884       16.4157085877
  O        23.7818188464       -0.3261371377        4.7163522691
  H        24.5887142622       -0.3439524564        4.1099508892
  H        24.1039922349       -0.7057327852        5.5966685008
  O        21.9422351673       -1.3214698528        8.8818407793
  H        22.0687801612       -2.1982724839        9.3087942917
  H        22.7465521047       -1.3290335234        8.2503236063
  O        18.1097409908       -0.8908078229       12.4500349406
  H        17.6647869439       -1.2208564119       11.6497573028
  H        18.9940148516       -1.3115897936       12.4569097813
  O        13.9262727405       -0.0945241851       16.3714203618
  H        13.5988769160       -0.0013823459       15.4490185423
  H        14.2640205829        0.7336484014       16.8135394364
  O        13.5537281347       -2.1062424257        8.5901113658
  H        14.3140540858       -2.7067516085        8.3679254970
  H        12.9973174426       -2.5761813745        9.2317080434
  O        28.7623354332       -5.8632787894        7.0214642526
  H        28.9430272910       -6.0334268837        6.0542474886
  H        28.8704159666       -6.6563939295        7.5486501233
  O        14.7290324154       -5.3386578578       10.0682844179
  H        14.5472836017       -6.2472081372       10.3799115160
  H        15.6840879179       -5.1837082520       10.1956459554
  O         9.6882885435       -4.0466233182        9.7913134355
  H         9.6650430443       -4.4863617319        8.9352950669
  H        10.6154303549       -3.9331180150       10.1799053135
  O        17.0228939572        3.5963219363       10.1505048965
  H        16.9219962925        3.1416338535        9.3040883777
  H        17.4669347033        2.9222480559       10.7698875625
  O        20.0396576275        1.9202838002        4.7673057132
  H        19.4549536738        1.3119242819        5.3597012287
  H        20.9843010395        1.9648748743        5.1516962294
  O        17.6896552457       -6.9252290458       13.1388132806
  H        17.7370343146       -6.5347534474       14.0333551498
  H        18.4685873564       -7.4804476980       12.9964995797
  O        16.7991202210       -6.3964042176       16.6158086031
  H        17.2671990987       -7.2401834585       16.7008470312
  H        15.8808168424       -6.5383306356       16.2296684295
  O         8.1614240113       -5.6156095987       16.3027863945
  H         7.6354637056       -4.8129255919       16.2479931921
  H         9.0193928477       -5.3932123113       16.6998912776
  O        23.1981979543        1.7520196247       13.6743357981
  H        23.0532038761        2.1816589209       12.7899874602
  H        22.6388752513        2.3543395557       14.2290785954
  O        18.0331747014       -4.5169493946       15.1167040873
  H        17.7966431408       -5.1637775882       15.8033356479
  H        18.5413152674       -3.8314677442       15.5826072796
  O        25.7464126298       -8.4938901750        5.3366125003
  H        25.0069438729       -9.1514356956        5.1573555081
  H        25.6448575568       -8.3586984602        6.3195084899
  O         9.4289470064       -8.7690115070        3.0490570177
  H         9.8480306981       -7.9456920324        2.7146102658
  H        10.0431363263       -9.1796301542        3.7778768450
  O        15.3078876585       -8.4267910247        1.2754392602
  H        14.8272511347       -8.7049774041        0.3965738005
  H        16.0475387274       -7.8297427570        1.0259568830
  N        15.7648815016       -2.2537765558       15.0618694542
  H        15.0616605083       -2.5357820173       15.8267709001
  H        15.3550789453       -2.1491941862       14.0968789071
  H        16.5506996343       -2.8870846457       15.0686947827
  H        16.1512169684       -1.3323648377       15.2596462508
