     194
 CELL 12.4294 12.4294 12.4294 90.0 90.0 90.0 i =    66020, time =    33010.000, E =     -1097.1490834304
  O         9.0064475458        0.0532994223       10.8140924969
  H         9.0220247988       -0.8873219898       10.5530136600
  H        10.0142945828        0.2474934442       10.8838199344
  O        13.9248733115       -9.3464432314        8.9418714625
  H        13.3810481608       -8.4884548122        9.1649092688
  H        13.2237148065       -9.8272142350        8.4131312587
  O        11.4780099771      -11.2946063528       10.7281225153
  H        11.8159872847      -10.7266473202       11.4221374281
  H        12.3326506764      -11.7359520315       10.4516460311
  O         6.1073356869       -3.0085348832       13.0291150527
  H         5.7734743430       -3.9883776287       13.2139598867
  H         5.3841295002       -2.3653436831       13.3106454771
  O         0.1816852990       -9.2677437500       12.1089330965
  H         0.6643771105       -9.4313257246       12.9922723048
  H         0.8702165577       -9.0561005353       11.4300805043
  O        15.5822391151       -6.1892135597       22.3344033946
  H        16.3459619773       -6.3638856898       21.7133808213
  H        15.7049764534       -5.2065673379       22.4767839002
  O        10.9531094216       -0.6487760954        3.0231717891
  H        11.1409485807       -0.1438842654        3.8529074069
  H        11.5480212615       -0.3057719471        2.2969391250
  O        15.9677608476        3.0437616701       11.1024935885
  H        15.3349115552        2.8462432574       10.3076928332
  H        15.7516106280        3.9267782169       11.3637389151
  O         7.1663288112       -7.0755221852        2.3917100034
  H         7.8142453359       -7.7338076823        2.1047417332
  H         7.0600770126       -7.2440870276        3.3776756430
  O        11.9805875583       -1.5908312155        8.8042315252
  H        11.6349076805       -2.0662129962        9.5841522904
  H        12.7025915650       -2.2110752047        8.3733196893
  O        13.3040950019       -7.8734424964        4.2131221377
  H        13.9417736008       -7.1019030198        4.4665837603
  H        13.3651509961       -8.5763242067        4.8628237935
  O         7.4258474261        1.6667819372        8.7932450380
  H         7.1254943712        1.7967574696        7.8593078388
  H         7.3124513669        0.7254652604        8.9676394430
  O         4.1570079921       -1.0059258373       13.4257989983
  H         3.4613763122       -0.7168824844       14.1252823081
  H         4.5610836762       -0.1134083026       13.1330556688
  O        12.9152013413       -6.9072190148       10.0019628780
  H        13.7075737687       -6.3099609793       10.1009348192
  H        12.3122502072       -6.8444153624       10.7654502670
  O        10.1398918197       -2.5527803504       10.6430587155
  H         9.8883696191       -3.3614838424       10.1466777786
  H        10.1504155894       -2.7767669634       11.5903566305
  O        14.8111247292       -1.9400587498       11.4721047403
  H        15.2671529134       -2.6741160163       10.9902425684
  H        15.4845199143       -1.6660216205       12.1420609916
  O        14.0230133608       -5.2594592546       13.9646808011
  H        13.1735608067       -5.7717956644       13.8540987735
  H        13.9373586445       -4.3637993084       13.5487677411
  O        14.2610947738        3.0271792053       14.2546102952
  H        15.1470758891        3.2232510474       13.8222089435
  H        14.1529319892        3.5054393521       15.1018074224
  O        11.4360965511        4.9040953665        7.2102677628
  H        10.5534634178        4.9629271207        6.7538223922
  H        11.3100289977        4.7619055218        8.2297186162
  O         7.8981145615      -11.3027491317       13.1437881252
  H         8.2620494596      -11.8442743966       12.3903094066
  H         6.9495120673      -11.1169256469       12.8679293182
  O        14.5997241711       -0.2932786043        2.7534526134
  H        14.7175002938       -0.5986876729        3.7005468027
  H        14.6415829066        0.7102102957        2.7809071545
  O         8.6651486349        4.7383012096       11.1449931622
  H         9.1258318409        4.2440927774       10.4374248780
  H         7.6593315724        4.5602880147       11.0492547947
  O        17.5336175425       -0.7209904885       19.4688135084
  H        18.0471820652       -0.9816163778       20.2347859689
  H        17.8174586875       -1.3319181425       18.7364156026
  O         6.1564958020       -3.0049931453        5.6319749020
  H         6.8885910428       -2.4946559695        5.1940293878
  H         6.6940375644       -3.4153478316        6.3788104254
  O         8.7760183149       -2.2252864780        4.5873832181
  H         8.9576402718       -3.1202177066        4.8698017117
  H         9.2807642411       -1.5639076985        5.2168597252
  O        15.9193089602       -6.9940542500       12.4397958668
  H        15.8784836183       -6.4979849140       11.5794128492
  H        15.1072052787       -6.6395143831       12.8983112168
  O        18.4562134751       -8.6143820961        9.8393149358
  H        17.6072830699       -8.9164167537       10.2992031968
  H        19.0631028885       -9.4249937444        9.7057306648
  O        14.1950453406       -3.1151185507       20.3118647958
  H        14.5267108172       -2.6952302870       19.4858511885
  H        13.8989448232       -4.0172817800       20.0433549978
  O         7.4256953760       -5.1266148293        7.1014872651
  H         6.6716436056       -5.7496008232        7.0131395983
  H         7.6959388734       -5.0815576772        8.0681498215
  O        10.3903788812       -8.7610050262       16.0107854494
  H        11.3252920385       -8.6143577262       16.1375003131
  H        10.1374643600       -8.6548891878       15.0742791394
  O         6.4145433741       -3.0698702999       10.3111867344
  H         7.2052372613       -3.6720168401       10.3269438279
  H         6.1999738015       -2.9470046409       11.3110051789
  O        12.1593780320       -2.7269088093       16.9760686142
  H        11.8073813449       -2.0634334251       16.2896501473
  H        11.3553977674       -3.0057085116       17.5246305204
  O        11.0888576575       -4.8662954444        8.6603497969
  H        11.2505452287       -5.0957523170        7.7418563102
  H        11.7207237806       -5.4560477851        9.1445183371
  O         9.7174695128       -1.6342972427        7.3488837203
  H         9.6233814180       -2.6414500685        7.2287109640
  H        10.6093991871       -1.5833102614        7.6485859774
  O        24.2084274493        1.6853968889        7.4825962408
  H        23.6432662610        2.1376750452        8.2112657188
  H        24.2725363321        0.7792955389        7.8562194878
  O        17.1057290884        3.1171739526        4.7016571131
  H        16.4421895131        3.2138308245        5.4030702103
  H        17.8457169391        2.6180553429        5.1490952642
  O        17.3002707454       -4.9231362788       16.5042938027
  H        17.3920902812       -4.9457758881       15.5126819056
  H        17.7010203469       -4.1726963656       16.9536102493
  O        17.6440917376       -6.7284667498        8.2163441381
  H        17.0898173575       -7.1077284282        7.5319744670
  H        17.9627258416       -7.4531130014        8.8172176522
  O        13.5171556889       -5.6810170967       19.2997053572
  H        12.7478319356       -6.3574808222       19.2646996384
  H        13.7016278843       -5.4280264478       18.3392583795
  O        15.5684478220       -8.2123612957        6.8220879206
  H        15.1617104294       -8.8048098038        7.4772582296
  H        14.9980547613       -7.4387572060        6.7820476711
  O         5.2284516504       -5.4185523132        1.3437758080
  H         5.9756469600       -6.0224843026        1.5978523081
  H         4.6559484109       -5.9777986445        0.6952745198
  O        14.5457490687       -1.5161284390       17.9423390004
  H        14.6187814501       -0.7196127811       18.4936885797
  H        13.6385247578       -1.7536506474       17.7595473256
  O        11.4076531132       -5.6848850305       16.4155975175
  H        11.8355843419       -6.5246415584       16.7345966177
  H        12.1422490924       -5.0874874400       16.5914327635
  O         8.9417717578        4.6368467816        5.8913519531
  H         8.8938603506        4.1494988022        5.0221158182
  H         7.9435622751        4.9399207967        6.0856699843
  O        12.9364074280       -2.3962472354       13.4473803527
  H        13.2468737614       -1.7936405347       14.0979235953
  H        13.4057856959       -2.1058231459       12.5924734989
  O        19.1382779723        1.4639388383        6.0417136628
  H        19.9980711500        1.1640929663        5.6283839720
  H        18.5958880797        0.7021752527        6.3397186764
  O        15.2797529883        0.6946158125        7.4038109484
  H        15.0094123399        0.4155204708        8.3489638180
  H        16.1398920216        0.1284998066        7.2064952498
  O        13.9718286242        0.0589687572        9.7546828645
  H        13.2033351045       -0.4871669097        9.3958993242
  H        14.4724159652       -0.6088790713       10.2543538844
  O         9.6479831786        1.1195405606       17.7017720747
  H         9.8400323842        2.0342889277       17.4472560171
  H        10.1386032370        1.1181231203       18.5485140898
  O         7.0682364995       -1.0352983198        8.7890108847
  H         7.9371457015       -1.2406168839        8.4013910614
  H         6.7863356185       -1.6752304189        9.4754157724
  O        22.1623799583       -4.6534246551        5.9886843849
  H        22.5070630171       -5.2900953693        5.3027559330
  H        21.2671578211       -4.9877285735        6.3434064780
  O         8.7095790842       -5.0532515961        9.6624255007
  H         8.4474289356       -5.8420525317       10.1591045778
  H         9.5948709521       -5.1970457779        9.1853893006
  O         3.5660869471       -3.4303603309        9.7546303016
  H         3.0610223153       -3.2305659514        8.9027058879
  H         4.5720706553       -3.4522630523        9.7474943939
  O         9.9530059380        2.9072511303        9.2279323783
  H         9.1256741286        2.4692907734        9.0678016464
  H        10.3231072503        2.3974580926        9.9116604837
  O        13.4983855185        1.9483519823        5.2917584593
  H        12.6586525780        1.8752765354        5.9110035671
  H        14.2089443679        1.8342761242        5.9103965955
  O        11.9361938376       -6.8396864137       12.8710589557
  H        10.9350702651       -6.6930917290       13.0798144760
  H        12.1261622591       -7.7649588241       12.7026751336
  O         9.6763388296       -5.5709324145       14.2005841014
  H        10.2795880631       -5.7194064687       14.9603120883
  H         8.7776347226       -5.8719575819       14.3474076048
  O         2.2259139912       -5.6333274314       16.6858945259
  H         2.1805078761       -5.6481304856       15.6652355744
  H         3.1514582072       -5.2949749132       16.8073751555
  O        17.6185639350        1.5705187111       12.7327159831
  H        17.2440709235        2.0630323902       11.9911866806
  H        17.5703180090        2.1208974343       13.5062447898
  O        10.1973127864       -2.9699268799       13.5113508679
  H         9.8388255912       -3.8829522525       13.7112287855
  H        11.1373316977       -2.9640503817       13.6286001610
  O        18.7056640844       -7.0642798292        4.9724312413
  H        18.0460810337       -7.7778076135        4.9187118960
  H        18.0832798323       -6.2967627549        4.7001722839
  O         4.3870603295       -8.7858233981        2.1000901394
  H         4.8610757713       -7.9524496379        2.1169900756
  H         4.3289722737       -9.0964146258        3.0446702243
  O         9.0308334708       -8.7628667606        1.1182973529
  H         8.7640816682       -9.7588168198        1.0411682075
  H         8.9877078604       -8.5123981995        0.1788980098
  N         8.0606204749       -1.5345983547       14.4742917675
  H         8.1124959882       -0.4778001328       14.2581837878
  H         8.9400940695       -1.9395640738       14.0473924295
  H         7.2151591275       -2.0328615800       14.0461402241
  H         8.2227531549       -1.7103715919       15.5237175479
