     194
 CELL 12.4294 12.4294 12.4294 90.0 90.0 90.0 i =    99620, time =    49810.000, E =     -1097.1193402825
  O        21.9482263169       -2.1760199876       15.0233620684
  H        22.0383736151       -2.8650389631       15.7157545517
  H        21.4133449707       -1.4831924940       15.3989035141
  O        26.1324064529      -12.0206199288       10.8785005383
  H        26.7550334473      -11.8219611484       11.6045880418
  H        26.5913599647      -12.7100001760       10.3036693757
  O        24.1627503626      -12.7491407332       17.8746156227
  H        24.8429724236      -12.0724699229       17.5188735971
  H        24.5025427523      -13.6054597560       17.6888161914
  O        19.8230491677       -4.2520788525       14.2394333701
  H        19.7666436257       -3.7277425093       15.0194450138
  H        19.9717940174       -3.5623726564       13.5292204578
  O        13.9010678305      -11.2838659545       16.7926574821
  H        14.5967356907      -10.9289532050       17.3919775140
  H        14.3035154480      -11.8444118288       16.0676844664
  O        30.2944428728       -7.7865444263       25.6908785495
  H        30.0354765060       -6.8523086411       25.8897702827
  H        29.9829786781       -8.0083049314       24.7689041070
  O        21.8531110125        1.4206977814        5.4994275058
  H        22.1491712292        2.3766820754        5.7015967886
  H        22.8078015287        0.9162926592        5.4652876128
  O        26.5409987035       -1.0162837734       14.6804702073
  H        26.4318655267       -1.6559333516       15.3643716000
  H        25.6253361332       -1.0037674980       14.4007415699
  O        21.1363697487       -5.4447904183        6.3608998436
  H        20.1199077082       -5.3273850607        6.4341603415
  H        21.4690944741       -5.3298379539        7.3137739369
  O        23.9022593873       -5.5407343694       12.2368124924
  H        24.6175382825       -6.2904498128       12.1761946061
  H        24.3412214561       -4.8832388097       12.8774327041
  O        24.6420459160       -8.1369718179        7.5594986580
  H        25.1389696415       -8.1252272166        6.6786797883
  H        24.7005379229       -9.0234973474        7.9380995866
  O        18.5035759628       -2.1646563426       10.5400892683
  H        18.1221641881       -1.2288563013       10.5907378458
  H        19.2275661739       -2.2402023838       11.2227795753
  O        16.7571556862       -1.6203460139       16.5321077389
  H        16.3737990021       -1.4996264229       17.5018007707
  H        16.9679946580       -0.6885758772       16.2771712327
  O        27.8599771585      -11.6260428321       13.0017154815
  H        28.0565542861      -10.7327929318       13.3167951370
  H        27.7560147595      -12.1820652566       13.7926176977
  O        21.9322313866       -6.2167163909       14.3608915316
  H        22.3624593198       -6.2123656588       13.5089903088
  H        21.1652961023       -5.5816535060       14.2204176384
  O        30.9936411777       -1.3041655401       13.6372043845
  H        30.1900943024       -1.9496089794       13.5744125311
  H        30.9821688827       -1.0574909993       14.5417352706
  O        30.5346699240       -5.9736777625       16.4117249665
  H        31.1450889600       -5.5586668301       15.7728654842
  H        30.6061534346       -5.3777611190       17.1886505614
  O        28.5200740429        1.3314001878       18.9109181304
  H        28.3353225904        1.6133800437       19.8700942380
  H        28.7774156462        0.3650323029       18.9778538010
  O        25.9498516576        5.7684030219        9.7350191921
  H        25.1131528312        5.4418931586        9.2444054286
  H        25.9205499937        5.4774305638       10.6943328168
  O        17.6878256496      -11.4477547754       16.2294358208
  H        17.7959531312      -10.8782386771       17.0376298810
  H        17.2910730836      -10.8677835916       15.5685900965
  O        29.4626575359       -1.4884568089        6.9496700875
  H        28.8827257213       -1.5431225359        7.7612816305
  H        30.3326081685       -1.7132918105        7.2837741941
  O        23.0526234178        2.3492994684       13.4464926429
  H        23.2110952722        2.5390950175       12.4763051089
  H        23.1793355233        1.3908404644       13.5586634159
  O        28.7758211329       -3.9660525377       23.0111840977
  H        29.4657231083       -3.2661260211       23.0354190349
  H        28.8703493977       -4.3882266297       22.1140846458
  O        23.0857608855       -3.9075735379        5.4979292995
  H        22.1355638621       -4.2823648418        5.5328415858
  H        23.0872797273       -3.7022808646        6.4579252257
  O        22.4551971428       -2.9482706386        8.1399045958
  H        22.2769031734       -3.6023901037        8.8768478326
  H        21.5261863192       -2.6789219249        7.8289807644
  O        28.1088126192       -7.4032834104       15.9623040421
  H        28.8698438201       -6.8777043617       16.2425317935
  H        27.7578951927       -6.8894970059       15.1647556516
  O        31.7401021960      -11.0431323242       12.3373598011
  H        31.8789655464      -10.4811426143       13.1561660183
  H        31.4219412094      -11.9756170797       12.5252414564
  O        29.3964631678       -5.4095492283       20.9245172163
  H        30.0707678563       -6.0280961940       21.2591814521
  H        28.6544812584       -6.0539546558       20.7901363327
  O        20.9399541149       -7.2254569588       10.5322834569
  H        20.3162472397       -7.1023833282        9.8180111626
  H        21.5859684723       -7.9593849455       10.4985954795
  O        19.2650198639       -8.5257941264       16.9705057059
  H        19.5230121822       -8.7454155126       16.0055094846
  H        18.8074418576       -7.6507917443       16.8651094430
  O        17.2564427072       -5.1707261419       12.7745807277
  H        16.9691532226       -4.9268355877       11.8665956862
  H        17.9546916918       -4.5776934396       13.2097853666
  O        25.8557643551       -4.1288334170       20.8369682460
  H        25.9955920739       -4.8994775278       21.4241449004
  H        25.0301511244       -3.6961228620       21.1016300542
  O        26.1280102348       -7.3316874313       12.2625344712
  H        26.9097698665       -6.7834892808       12.5296048118
  H        26.0891871085       -8.0731469823       12.8558630538
  O        22.2541313248       -4.5177836460       10.3239471251
  H        21.7818932863       -5.4089213348       10.4153025649
  H        22.9625080037       -4.6319404742       11.0246709106
  O        35.4872134470       -1.1913012804       11.2671744144
  H        36.3025934116       -0.8138919912       10.8858977377
  H        34.7679388321       -0.7024497793       10.7954345673
  O        30.8493854143        2.6758757905        7.0466528109
  H        30.0417294903        2.2318334002        6.6858393738
  H        31.2353693258        3.1263838889        6.3042858397
  O        30.9917658552       -4.5593970188       18.7586332487
  H        30.3552755137       -4.7302678487       19.5572595045
  H        31.0134950452       -3.6095280805       18.4942538829
  O        29.8772192513       -9.1116653902       11.1935209732
  H        29.2834221195       -9.6651416284       10.6516155324
  H        30.6056159440       -9.7454844051       11.3397024492
  O        27.7294501239       -7.4834212929       20.5503522916
  H        26.9335247768       -7.2997478540       21.1321853260
  H        27.4119326283       -7.5496159766       19.6077250810
  O        28.0449588936      -10.1016125102        9.1145152336
  H        27.2019224604      -10.3555405952        9.5102538876
  H        27.8380663187       -9.1992309890        8.7782027648
  O        19.2134945786       -2.8627881962        4.1707511780
  H        18.3087334804       -2.4633905057        4.2333498861
  H        19.8215004749       -2.0831897308        4.1178292219
  O        25.2751019314       -3.9726407209       26.3484615249
  H        25.1194538011       -3.5677368124       27.2400400947
  H        25.7460633585       -3.3557789839       25.7981885345
  O        27.0939811674       -1.3971651269       21.2767869501
  H        26.9452264877       -2.3489122848       21.5186146868
  H        26.2495631435       -1.1054953714       20.9075115075
  O        20.1067589578        0.7105573547        7.7923297836
  H        20.8090727270        0.9276949813        7.1268917007
  H        19.3853946712        1.3271365056        7.5308777604
  O        24.3640239712       -1.0966473964       20.3305172497
  H        24.3306120160       -0.6118207395       19.4910055684
  H        23.6083968123       -1.7362769722       20.4442804607
  O        32.3264472226       -2.0778459084        7.6903794420
  H        32.3612939413       -1.0988233078        7.5980769405
  H        32.0367940550       -2.2151552870        8.6020323241
  O        26.2552469210       -3.4391973488       11.3622812026
  H        25.6315695580       -4.1420414778       11.2052973450
  H        27.1280281271       -3.8160250843       11.0531750452
  O        25.1968342211       -2.8117693893       16.6154844023
  H        24.3578572787       -3.2360329852       17.0552756829
  H        25.9430960888       -3.3004447754       16.9783979176
  O        20.3866913107       -0.2851789657       16.1650374077
  H        19.5725910691        0.2864267805       15.9579207941
  H        20.9446979580        0.3653344078       16.6903470346
  O        20.8002067234       -2.8923144315       12.0352600669
  H        21.3594826710       -3.3515812555       11.3535365332
  H        21.4483914717       -2.2897617869       12.5260082776
  O        35.3919264788       -9.4916460019       10.7866707498
  H        36.1102063765       -9.7434431564       10.2339550794
  H        34.7089486197      -10.1742990532       10.6588243613
  O        21.2500178497      -11.5448820417       10.4853937255
  H        20.7231970840      -11.5931371121        9.6326172749
  H        20.5672573173      -11.3671353595       11.2081269540
  O        14.9491007645       -5.6755074277       13.9851866877
  H        15.7142426493       -5.1648838052       13.5922511633
  H        14.2100938108       -5.0292522274       13.9512139891
  O        23.8625561296       -0.4976474554       13.8190776120
  H        23.5120749292       -0.7856170656       12.9260830629
  H        23.4312809022       -1.0542506359       14.5223005827
  O        24.9803695168        1.8664688130        9.1551221540
  H        24.4697956488        1.1641806736        8.8032091854
  H        25.4522794696        1.3681480067        9.8780735374
  O        25.5897637486       -8.9104569890       14.2649949885
  H        24.7091430850       -9.3410778403       14.1626103406
  H        26.1942810398       -9.4474557515       14.7618939481
  O        22.0248811115       -8.4918036948       17.9493806016
  H        22.1097255504       -7.7111630168       18.5456746929
  H        21.1221286688       -8.3998183411       17.5800505653
  O        13.8037639283       -7.0261127046       18.0256147216
  H        13.9871043504       -6.0785183110       18.2914331127
  H        14.3023913002       -7.2012162129       17.1760966611
  O        29.4977153655        0.2317674037       10.5417335631
  H        28.8366645947        0.0819719720        9.8035665068
  H        29.0267207825        0.2552221301       11.4049969327
  O        27.0894957662       -4.2944431046       18.4200275407
  H        26.6228589711       -4.0632975986       19.2672568737
  H        27.9710619265       -3.8966281746       18.6285177564
  O        30.9642056397       -7.2653030624        9.1868392832
  H        30.9715014377       -7.8979260742        8.4321932914
  H        30.5362515008       -7.6978389241        9.9329721421
  O        16.4792958850       -9.5169861745        2.2225862474
  H        16.9800865107       -8.9049667242        1.5757417441
  H        16.1338731087       -8.7650912661        2.8426458738
  O        19.8426785155       -9.1557921832        1.7499989648
  H        20.7973322601       -9.0117113446        1.5102014864
  H        19.2424987128       -8.4650137966        1.3166509591
  N        24.0492913808       -6.9237144309       15.9909305496
  H        24.3423673800       -6.2293259907       16.7669501334
  H        24.8082506464       -7.4592378467       15.5224458264
  H        23.3758500672       -6.4300177997       15.3700815133
  H        23.4481493484       -7.6471571427       16.4080458353
