     194
 CELL 12.4294 12.4294 12.4294 90.0 90.0 90.0 i =    93620, time =    46810.000, E =     -1097.1127527702
  O        19.6881252857       -0.7524017009       13.9333725870
  H        18.9758352909       -1.4862430127       14.0276335332
  H        19.6938259442       -0.3664964023       14.8380224555
  O        25.3908022988      -11.1724234486        9.8062856239
  H        24.8891747675      -11.0206197597       10.6214728396
  H        26.1088525426      -11.7374116450       10.2472859531
  O        22.9522107722      -12.6813959960       15.7539956800
  H        23.3993870365      -11.8104627795       15.9935817872
  H        23.6397082786      -13.3954491201       15.6326312741
  O        17.6124108662       -2.7809821712       14.5132625029
  H        17.8564832182       -3.4606058406       15.2346085128
  H        16.6131414947       -2.6463952744       14.5157787266
  O        11.6508222454       -9.5441255558       15.8548173056
  H        12.2941011773       -9.2365624389       16.5621216474
  H        12.1771710647      -10.0401466456       15.1143792644
  O        29.5534292575       -6.8185882613       24.4895505085
  H        29.4474140887       -5.7824172795       24.6185089979
  H        28.6593492743       -7.2546227936       24.2468822006
  O        21.7953568560        2.3041460823        4.7589041415
  H        21.0438533838        2.3138669085        4.1458629243
  H        22.5801409013        2.5420368768        4.2438263319
  O        25.3629886302        1.4467705464       13.9214554772
  H        25.9955333752        0.8875240153       14.4868767903
  H        24.6428678167        0.9055384760       13.4867122805
  O        17.9714429262       -7.3823735945        4.5176030506
  H        17.1264756371       -7.5219882152        4.0236912752
  H        17.8806810259       -7.7788202390        5.4377859975
  O        22.6183600199       -3.9472811633       11.4340010863
  H        23.2036151437       -4.6347744167       11.8409950610
  H        23.2210378855       -3.1809190444       11.5004300425
  O        22.8293640181       -8.0548374225        7.1952590049
  H        23.2935262670       -7.8283421411        6.3623842084
  H        23.0837757348       -9.0527061893        7.2920964501
  O        18.2026177726       -0.9747623171        9.6296810248
  H        18.2752897244       -0.2286358340       10.2428635904
  H        18.8405765554       -1.6237939847        9.9947365983
  O        14.5696153163        0.0629212431       15.8085944308
  H        14.5150912044       -0.5298196852       16.5075850005
  H        15.4563481435        0.4894289132       15.8819826125
  O        24.8820271612       -8.6800219480       12.3295155149
  H        25.6138110734       -8.4030977261       11.7167586929
  H        25.2311471964       -9.3319674584       12.9612779408
  O        21.3094742250       -2.9779618282       13.9229062551
  H        21.7214611481       -3.2327212561       13.1055671757
  H        20.9883961197       -2.0788305121       13.9400076537
  O        27.4401177964       -2.4093173748       14.2827056080
  H        26.8823124742       -2.5288762972       13.4532090465
  H        27.3055228643       -1.4381422548       14.5575794381
  O        25.7933137445       -4.3801590120       15.9087269723
  H        26.3912867314       -3.7928274271       15.3962186013
  H        26.3869818130       -4.5689165851       16.7208780944
  O        25.6942528573        3.0816622350       18.1976885400
  H        25.1661643237        2.5407464251       18.8790380512
  H        26.5249341418        2.5369906579       18.3034273163
  O        23.4985411292        6.4458399314        9.2017057045
  H        23.1614763329        5.6567419679        8.6648130770
  H        23.6702068270        6.1939986605       10.1465878026
  O        16.3639033349      -10.2432121993       16.0075002687
  H        16.1874920151       -9.8324866644       16.9101704700
  H        16.1533586093       -9.4507572102       15.4113517453
  O        27.3394055423       -1.5340409355        5.8737596939
  H        26.4978954675       -1.6189604091        6.4086193121
  H        28.0499816768       -1.0524131549        6.3801802675
  O        22.0954382393        2.9040047571       12.8809658082
  H        22.7717173876        3.0424863347       12.1914725141
  H        22.2833344311        1.9548930773       12.9742087249
  O        28.5586610575       -2.3879607199       22.9028057174
  H        29.0635134954       -1.7178351963       22.3656655594
  H        28.1223817751       -2.9731728416       22.2643530018
  O        19.7659508537       -2.8553108615        4.7992629880
  H        19.1785562164       -2.1095536299        4.6128841885
  H        19.1162123770       -3.6482414432        4.7485193131
  O        21.2359360124       -3.0019241712        7.0761280328
  H        20.9392164587       -3.6614749771        7.7474784526
  H        20.6648378304       -3.2118815919        6.2528000013
  O        25.9193482193       -7.0660512439       15.1042297132
  H        25.8272355265       -6.0700716045       15.2014481271
  H        25.1526945940       -7.4473417094       14.5921398132
  O        31.1406281310      -11.3914703043       11.7917420869
  H        31.3442625176      -10.4813186423       12.1469429863
  H        31.4270394602      -12.0775483107       12.4558667541
  O        27.8782676143       -4.8197785337       20.9419534499
  H        28.8601448680       -5.0196075010       20.8250493307
  H        27.5189665675       -5.7022230353       20.6381737788
  O        17.8745525530       -6.8664594172        9.1127214940
  H        17.4485851975       -6.6736324707        9.9406864159
  H        18.7816650936       -7.1118000535        9.4454267778
  O        19.4111399472      -10.0827925981       15.4550435728
  H        19.2722018177       -9.9861956591       14.4976317493
  H        18.8035797611       -9.3851501101       15.8481519694
  O        17.7792399644       -4.1063571871       11.9313556487
  H        17.0848264090       -3.5876070600       11.4027677415
  H        17.6721752652       -3.6784738607       12.7871862201
  O        24.3480146503       -3.0835497717       21.4912507511
  H        24.0400384034       -4.0238140662       21.5189618351
  H        23.7711915322       -2.4605190117       22.0395255729
  O        24.4179845849       -5.9917948180       11.9735112632
  H        25.3291171969       -5.7610140378       11.6539986637
  H        24.5873553382       -6.8411636466       12.4271148093
  O        20.9101854604       -4.8465766928        8.9416451817
  H        20.5651298048       -5.7256151167        9.2399586771
  H        21.8471475705       -4.9383128456        9.2533124535
  O        34.7578500905       -1.1841020627       10.5940279722
  H        34.3401162664       -0.3891938550       10.1472870911
  H        33.8937045272       -1.6711496082       10.8321814133
  O        28.1503802183        1.9568102135        6.7689605378
  H        27.6818159192        2.2594355731        7.5625602436
  H        28.6505492571        1.2311385795        7.1252500879
  O        27.4384289392       -4.2187971469       17.8586662172
  H        27.7101417066       -4.6844424308       18.7484069796
  H        27.5514891395       -3.2215888083       18.0611908666
  O        27.3180451291       -8.1208927404       11.4002094576
  H        27.4131701679       -8.2269472187       10.4069011251
  H        27.4773792641       -9.0511778490       11.7362916989
  O        25.9913919362       -6.9303961768       20.0508925205
  H        25.2151683251       -6.5368985204       20.5363094629
  H        25.6233207852       -7.3022907204       19.1403287293
  O        27.1401349738       -9.2263144398        8.8905954644
  H        26.5514832116       -9.8946969880        9.3408137023
  H        26.5915336507       -8.5486514188        8.3906817777
  O        17.6211621689       -4.4696995812        4.4055440462
  H        17.8423164754       -5.4584448794        4.4035433280
  H        16.6664552394       -4.3640872976        4.6977604396
  O        25.3316868551       -2.5905795562       24.8420950815
  H        24.8539192113       -2.5603325551       25.7287015855
  H        25.5104230271       -1.6321971540       24.6105741258
  O        24.8228580441       -1.9768811081       19.1032970174
  H        24.6488740439       -2.4909373763       19.9449629971
  H        24.1028999608       -1.3220137152       18.9652239030
  O        20.0749667168        1.6099866218        6.9231403443
  H        20.8679066035        1.8857694654        6.4814747262
  H        19.4857169915        2.4267572452        6.8893876897
  O        22.4989875030       -0.3188491200       19.0325245362
  H        22.3045480497       -0.3665863927       18.0233611094
  H        21.8537837705       -0.9686376187       19.4336999581
  O        29.6777168584       -0.2503139060        7.1265766029
  H        30.2364000472       -0.0541644550        6.3914158046
  H        30.2492601641       -0.3159083914        7.8994694956
  O        26.8342780758       -0.3054004220       11.4638832771
  H        27.4515523557        0.3953489451       11.8747921902
  H        27.3681736616       -1.0478948627       11.1500571784
  O        23.9176565467       -2.7509700609       14.9912607277
  H        22.9176589162       -2.8559796413       14.8410760210
  H        24.1995213396       -3.3633518756       15.6812099221
  O        18.9963957952        0.0776440514       16.9630990181
  H        18.8364353578        0.7263519984       16.1970831780
  H        19.5570204181        0.5975183684       17.6112282175
  O        19.9310594439       -2.7609180738       10.6540061108
  H        20.1685612668       -3.5107291939       10.1376410627
  H        19.4642105527       -3.1738213677       11.3815285387
  O        32.9048747828       -7.9188082465        9.1160460660
  H        33.0165455524       -7.9484497631        8.2203732406
  H        32.9350248919       -8.7952117943        9.5731236635
  O        20.8848705610      -11.3627412586        9.6399555061
  H        20.6108212840      -11.1909199422        8.6719218850
  H        20.0724227245      -11.6263163694       10.1314512210
  O        14.3023120015       -5.0320924004       11.1117249321
  H        14.7674311646       -5.0091886741       10.2587817853
  H        13.6541931459       -4.2724389393       10.9277193165
  O        23.1206744356        0.2256112818       13.0664917366
  H        22.8125842711       -0.2955949776       12.2479925879
  H        22.6467619975       -0.0884326191       13.8504761917
  O        23.9586795668        1.6934606931        7.4950779598
  H        23.3028712418        1.0670758690        7.1430277188
  H        24.1619777588        1.3779937659        8.3994201479
  O        22.5167698396       -7.2441143673       14.4555049111
  H        22.0910020188       -7.9407640258       13.9448498504
  H        23.0461943338       -7.7053731546       15.1446704601
  O        20.6479825368       -7.1217654544       18.1949725212
  H        21.4436346328       -7.4945852568       18.6263360575
  H        20.2961518964       -7.8213713875       17.6318063811
  O        11.6670057254       -6.7183091873       17.6288519156
  H        11.4297014126       -5.7858673441       17.9015380228
  H        11.9684263330       -6.6682150810       16.6958500120
  O        28.2293758308        1.8541637770       12.4193371009
  H        27.8473728980        1.6057821668       13.2826533761
  H        29.1661888215        1.4818624954       12.4654121859
  O        23.3817899895       -4.2478395787       18.1273626276
  H        22.5837456165       -3.9664044469       18.6906026950
  H        24.0442963805       -3.4897409655       18.2281564534
  O        30.3250903468       -8.8326011807        6.8204823149
  H        29.5106805325       -9.3956311521        6.7742194345
  H        30.2462640017       -8.2361160731        7.5752060836
  O        16.0911481499       -7.9300604813        2.1727103896
  H        16.5233492665       -7.4998530977        1.3900781859
  H        15.2137809411       -7.4665795227        2.3222017595
  O        19.1143088372       -8.7248033030        0.3490221118
  H        20.0263758777       -8.5619568142        0.0600135109
  H        18.7531610791       -7.8268900846        0.1098056704
  N        21.7111857961       -5.2475306530       16.2094473012
  H        21.1636222619       -4.5429838002       15.7145428652
  H        22.0432422616       -5.9502756258       15.4970278380
  H        21.1667357983       -5.7190994956       16.9346938676
  H        22.4692510481       -4.8173373824       16.6920943186
