     194
 CELL 12.4294 12.4294 12.4294 90.0 90.0 90.0 i =    33220, time =    16610.000, E =     -1097.1101956782
  O        -5.9063295309        3.6991084526        7.7740625402
  H        -6.5349366668        3.4363987722        7.0231940700
  H        -5.2962277692        4.2550375459        7.2764535925
  O         0.3353895736       -8.8769667067        4.2763686855
  H         1.0259159733       -8.4749798911        3.6578637441
  H         0.8272714851       -9.4298558627        4.8569224751
  O        -2.6011941737       -9.0842871835        7.4797779493
  H        -2.1827087238       -8.3080950865        6.9666482137
  H        -1.8837351298       -9.5186528438        8.0384576799
  O        -7.8382980716        0.3020539705        9.0709224668
  H        -7.8850367064       -0.6896814162        8.9706012929
  H        -7.8724106423        0.3854188947       10.0748936407
  O       -15.9236256536       -6.0798105278        8.5550150239
  H       -15.8399283562       -5.4915262640        9.3839893227
  H       -15.0583770959       -6.0445744045        8.1870688197
  O        -0.3251380016       -2.5825517480       15.1546988642
  H         0.2656627920       -1.8332336738       15.4228452532
  H        -0.0685984220       -3.0009853933       14.2984881529
  O        -2.9993787133        4.0019206125       -2.2658429770
  H        -2.1065718036        4.3944079739       -2.1524278984
  H        -3.2084342508        4.2308715636       -3.1724764699
  O        -1.4152640369        5.1951697449        5.6382272792
  H        -0.7571949514        4.8039766551        5.0446304434
  H        -1.5523736711        6.1634241530        5.4013240009
  O        -7.3895379744       -3.4296412195        0.7301594174
  H        -6.9131879345       -4.2435834323        1.0309597270
  H        -7.7547213202       -3.0995642573        1.6415832803
  O        -2.4841175830       -0.9773470507        2.8825715829
  H        -2.8848179679       -1.0480961540        3.8091344808
  H        -1.7683855419       -1.6278402018        2.9091455385
  O         0.0345326458       -4.0372106094        0.2647688660
  H         0.8825872894       -3.7775389071       -0.2341543896
  H         0.3086059302       -4.8620559694        0.7320176216
  O        -5.5504786828        5.4448611525        4.7976275693
  H        -5.5987104395        5.6371747185        3.8459266389
  H        -5.2085622459        4.5398281229        4.9258297011
  O        -9.5058020078        2.4684958427        9.3321916557
  H       -10.2174778789        2.0518349716        9.9041152660
  H        -8.9388871960        1.7103142208        9.0883609792
  O        -1.9475443519       -4.6057917815        4.6596383744
  H        -1.2488253715       -3.9903223764        4.2191172282
  H        -2.1287082007       -4.1101195879        5.5087399975
  O        -3.8904228607       -0.4197825019        5.2112997086
  H        -4.4692247906       -1.2041563686        5.2422342052
  H        -3.2761955522       -0.5159447052        6.0423961172
  O         1.3808615754        2.2345243675        6.3114409647
  H         2.0831318285        1.5894983306        6.4992691521
  H         1.8968087456        2.9911236403        6.7041030552
  O         0.6770075429       -0.6456701308        4.6465296076
  H        -0.0143201785       -0.5667256220        5.3676290207
  H         1.0470949844        0.2681966274        4.5264512948
  O        -0.3131254476        5.1524377666       10.5104373334
  H        -0.0299358654        5.3609857473        9.5872167065
  H         0.1401577494        5.7737603121       11.0771671903
  O        -2.6596015991        4.3424618137        2.9771527678
  H        -2.6343133274        3.3729498668        3.2698526339
  H        -2.5032944332        4.7653618976        3.8344609787
  O        -7.5765141194       -7.4659333992       10.1808206067
  H        -6.6483388023       -7.4946896978       10.6589022395
  H        -7.3002106629       -7.6433439957        9.2295750026
  O         0.8339150702        1.7514170658       -1.5847737331
  H         0.5983190688        0.8725893730       -1.1553824690
  H         0.5972483639        2.4120915800       -0.8784946119
  O        -5.5159048046        7.9251232362        7.3710615752
  H        -4.7818770566        7.2934800768        7.8186692159
  H        -6.0998478330        7.3101457716        6.8958299632
  O         1.8969643745       -0.8085381159       12.6274247032
  H         2.2512681132       -1.7358777384       12.3679027258
  H         2.5734236054       -0.1919244924       12.3087378697
  O        -6.1288408976       -1.2710398064       -0.7121729892
  H        -5.5195326855       -0.9658495834       -0.0066251013
  H        -6.3262239895       -2.1881367481       -0.3897961072
  O        -6.7374532020        3.0858704490        1.9576475024
  H        -6.5901324685        2.3449411117        2.4973019249
  H        -6.0917806869        3.8419828089        1.9221146700
  O         1.9690945300       -2.4946038815        6.2640680129
  H         2.2933649576       -3.2847357987        5.6923378906
  H         1.7715533802       -1.8085262351        5.6304491222
  O         4.6996067698       -6.3067853440        6.2298738880
  H         4.2685812107       -7.0148975160        6.7753346322
  H         5.3859102622       -6.7225597547        5.6347865298
  O         0.4765330050       -1.3650753232        9.9456249585
  H        -0.4755598395       -1.1584481317       10.3546596550
  H         1.1132379307       -1.2288211818       10.6510765556
  O        -8.1084724712       -2.9215909192        3.1865928303
  H        -8.5804238331       -3.7635308192        3.6272046794
  H        -7.2257598686       -2.7645200433        3.6481483505
  O        -4.2144846563       -4.5780287132       10.7453851303
  H        -3.7455384880       -4.0980738965       11.5011547786
  H        -4.8246458674       -3.9420980441       10.2941767740
  O        -8.5385145236        0.8622151368        6.2668363865
  H        -8.6240824433        0.1108701209        5.5483711217
  H        -8.1392902621        0.5113278918        7.1032379451
  O        -3.6446745282        1.1829942889       11.5075465305
  H        -3.2778258018        2.0392825298       11.6914283770
  H        -4.0131366050        0.7381615548       12.3758432715
  O        -4.0308839263       -4.2526024316        3.0757000081
  H        -4.6362244792       -4.9028544590        2.6718943765
  H        -3.1911038868       -4.5657944062        3.4531330725
  O        -5.5328928531        0.6960366966        3.4475692092
  H        -6.3976008490        0.2994286073        3.6066380755
  H        -4.8728352717        0.4077927141        4.1106935614
  O         7.8768137347       -0.1104794354        1.1006326044
  H         7.4881024519        0.4255641814        1.8700018069
  H         8.6442001039       -0.6152609985        1.4738391576
  O         3.8937563831        3.0636008163       -0.2052125810
  H         4.5248530931        3.0792895073        0.5761641371
  H         4.0541353841        3.5726732525       -1.0713149042
  O         2.7412682898       -3.3887356478       11.9247163923
  H         2.9148576971       -3.1245036431       10.9825416806
  H         3.6368199437       -3.5289738564       12.3599446369
  O         3.3085017637       -4.8046420456        4.4579822135
  H         3.0162206370       -5.6681564213        4.0026344822
  H         3.9001911077       -5.2093465081        5.1575884754
  O        -2.7364585479       -2.9544215247       12.7294996881
  H        -1.9807476175       -3.5907055972       12.7752766149
  H        -3.1040091311       -2.8823549687       13.5911094584
  O         2.1694662536       -6.3357883350        2.3091553042
  H         2.6114828843       -7.0824011183        2.7754965004
  H         2.4278513991       -6.2354558916        1.3661522975
  O        -8.8612159977       -2.4901832154       -3.0191968572
  H        -8.2973340894       -3.3326251880       -3.1010150261
  H        -9.3150918690       -2.4765901272       -3.8713379607
  O         1.0978692573        3.4405775210       13.1321652111
  H         0.6177210034        4.2578260394       13.1607379171
  H         2.0349595553        3.6857894327       12.8394700517
  O        -1.9660294627       -1.0423164125       10.8055133733
  H        -2.2751148974       -1.5873790107       11.5686759262
  H        -2.4818084048       -0.1957109519       10.8867928587
  O        -4.9398769706        5.2269190924        1.9279420143
  H        -4.9385462769        5.3397739908        0.8926158522
  H        -4.0117818380        5.0176984831        2.2712534643
  O        -0.6028934603        1.7331007611        8.4849683447
  H        -0.1427129754        1.9452574990        9.3819571960
  H         0.1597636765        1.9358610768        7.8718300560
  O         3.5366380535        4.2228229543        3.6388620118
  H         4.1593609998        3.8649469123        2.9452111581
  H         3.8957441363        3.8923104754        4.4818417823
  O         1.5796233849        0.9554668261        2.4360593494
  H         1.5482426077        1.7939044404        1.9788546564
  H         1.6711758637        0.2547606814        1.7382425885
  O        -1.8132822083        1.8535527172        3.6461411414
  H        -1.8553375163        1.0277830999        3.1117874893
  H        -0.9518610330        2.2362884344        3.5848047467
  O        -4.8976366002        5.3089526397       11.6758790934
  H        -4.6651278250        6.2155187992       11.2746868259
  H        -4.1093018616        4.8023050091       11.3141321410
  O        -7.3197899030        3.0203041834        5.6186646589
  H        -6.4474629881        2.6270058753        5.3000928745
  H        -7.8399074428        2.1681660876        5.7091206573
  O         4.1726749746        0.5383838844       -0.7078085005
  H         4.9898617943        0.0192887536       -0.5105723600
  H         4.2873356890        1.5615584007       -0.6185811703
  O        -5.4127808783       -2.6434884688        4.5905672885
  H        -5.4989218803       -3.2225233865        5.3337798559
  H        -4.7655333242       -3.2594133970        4.0418334385
  O        -8.2161933842       -0.1548253987        3.7212440987
  H        -8.4203649773       -1.1420099127        3.5089168687
  H        -8.9440973919        0.4030956924        3.3312909978
  O        -4.4546384673        2.7135084968        5.3803071905
  H        -3.9436063931        2.9141275130        6.1856695507
  H        -3.8337494729        2.4664181028        4.6701443858
  O        -0.4970070493        5.5877426581        1.2745352365
  H         0.2538756769        5.7495594420        1.8884312277
  H        -1.1139063780        4.9158269770        1.6020000802
  O        -2.4025518768       -3.4066174382        7.2401695446
  H        -3.2106115988       -3.0883231066        7.6594763260
  H        -1.6945569424       -3.2808686428        7.8379833486
  O        -4.3578633012       -1.6390091535        9.3379560100
  H        -3.5027290561       -1.6588736897        9.8698702433
  H        -5.0235267096       -1.6511072654       10.1051451741
  O       -12.1555602040       -3.5085641104        8.1546253998
  H       -11.6126436603       -3.1232520770        7.3548216198
  H       -11.8179810151       -2.9312989282        8.8828613556
  O         2.9303274418        4.6036681120        7.5962104697
  H         2.9709995627        3.8583896429        8.3420203819
  H         2.1680941628        5.2345151711        7.7930819009
  O        -2.0813750256       -0.2919733009        7.5224863180
  H        -1.8241991051       -1.2704554611        7.4803353266
  H        -1.3728592611        0.3255685700        7.9960655725
  O         2.4129396490       -6.2782460977       -0.8020941039
  H         2.9954697890       -6.8021625452       -1.3526534296
  H         2.5142897947       -5.3222090500       -1.0114188187
  O       -11.9424776628       -6.1430265778       -4.4621128858
  H       -12.4419137682       -6.3990724684       -5.2996429681
  H       -12.0236874131       -5.1219933771       -4.3441669217
  O        -6.9487884995       -4.4771063439       -2.8781020278
  H        -7.2913299828       -5.3719406789       -2.6930758734
  H        -6.4842560788       -4.4981449681       -3.7636752044
  N        -4.5904373055        0.9686858060        8.6467971429
  H        -4.8478488513        1.8527766130        8.1889462229
  H        -3.7125608725        0.5098088370        8.2370390427
  H        -5.3303076728        0.2125784105        8.5903160919
  H        -4.4454997362        1.2192389724        9.6282499355
