     194
 CELL 12.4294 12.4294 12.4294 90.0 90.0 90.0 i =    92420, time =    46210.000, E =     -1097.1335705379
  O        19.5262103075       -1.0280643641       14.3478851755
  H        18.8409152392       -1.7024307734       14.1843599161
  H        20.3528353197       -1.5242125846       14.6099202785
  O        24.7645715557      -10.6988517150        9.8096761404
  H        24.5679359827      -10.4194987943       10.7152789796
  H        25.1286381356      -11.6302245408        9.8786638174
  O        21.6972154721      -12.7429137334       16.5115879470
  H        21.3280693338      -11.8192627158       16.3517429014
  H        22.5966057778      -12.6459462473       16.2632166305
  O        17.6112402399       -3.0742821424       13.9007837415
  H        17.6712215073       -3.4451568062       14.8674226746
  H        16.7439793323       -2.6257767449       13.7592021840
  O        11.0191565062       -9.6695724383       15.4343278887
  H        11.6331253812       -9.7091364596       16.1498532619
  H        11.1343388406      -10.5347577529       14.9637308831
  O        29.3911589658       -7.1198655282       25.1126828602
  H        29.3711552302       -6.2176059077       24.7970547328
  H        28.6257784593       -7.6240349946       24.6374830677
  O        20.8557141252        2.5338994077        3.8526743813
  H        20.2257953931        3.1270270575        3.4381093115
  H        21.8037359450        2.7525435012        3.7009328498
  O        24.2321148010        0.7957531109       13.6918277376
  H        24.7898476172        0.2998636489       14.3671436202
  H        23.4975037493        0.1673672765       13.4951000360
  O        17.6106712309       -6.5785181491        4.2360172209
  H        16.7223963387       -6.8133158537        3.8050540327
  H        17.5988876870       -7.1355887344        5.0626476817
  O        22.2726169309       -4.4192572645       11.7441385495
  H        22.6508631610       -5.3562037593       11.8513159915
  H        23.0149718833       -3.7825713970       11.8359208306
  O        22.8955364165       -8.0844764421        6.5495586946
  H        23.7464460450       -7.7974287475        6.1024151054
  H        23.0552257963       -9.0495455868        6.7828207263
  O        17.4098641224       -0.7026826485        9.1675517725
  H        17.5114135257       -0.2602771026       10.0294332012
  H        18.2018329839       -1.2668971461        9.1267589687
  O        13.9830756155       -0.1557999339       15.1849408183
  H        13.8903579350       -0.5174055528       16.0870014189
  H        14.3253908960        0.7900306883       15.2895591719
  O        24.7761291649       -9.2779333668       12.1399406827
  H        25.7064018277       -8.8879659634       12.1945403448
  H        24.7156346958       -9.8421380255       12.9132219380
  O        20.5538930919       -4.0662764300       13.8871011639
  H        21.0545989797       -4.2880320523       13.0553025103
  H        19.6294474396       -4.0907425266       13.6228600911
  O        27.5819610555       -2.0046270961       13.7176935799
  H        27.2270706116       -2.3936343298       12.8705872010
  H        27.2155605934       -1.0990342831       13.9279236905
  O        25.9440155536       -3.5034154454       15.4949583863
  H        26.5776805555       -3.0522146378       14.8764074625
  H        26.4180545346       -3.6327897264       16.3358817170
  O        24.7953509147        1.5085957220       17.5332703650
  H        24.3138341374        1.3893983434       18.3983287420
  H        25.5554753686        0.9392492870       17.7293683756
  O        23.3971471421        6.2665423475        8.5891767512
  H        22.6206890583        5.8530190517        8.1405094918
  H        23.4326066555        5.9288402782        9.5152454380
  O        15.2922257462      -10.0310946650       15.7053605617
  H        15.0354710581       -9.8951154264       16.6792759450
  H        15.3156047068       -9.1128299954       15.3254071481
  O        27.1202675878       -1.1412317296        5.5367355914
  H        26.5097091455       -1.4536545616        6.2469526481
  H        27.7470356801       -0.6625826552        6.1444055175
  O        21.5866225716        2.8036432233       12.0728549249
  H        21.9434481939        2.6026226041       11.1954499093
  H        21.6659908029        1.9594940892       12.5866696026
  O        27.2062692877       -2.0072424355       21.2639345566
  H        28.0728558336       -1.6907856295       21.4101197919
  H        27.3509977067       -3.0207171186       21.1932754726
  O        20.3753683656       -2.8792252935        5.0992976589
  H        20.3319137619       -1.9701485116        4.6625301876
  H        19.5047706177       -3.3030590160        4.9212400959
  O        21.5602067340       -3.4409626926        7.2462430795
  H        21.2173895502       -4.0666648792        7.9788270056
  H        20.8772038864       -3.2523009289        6.5473129156
  O        25.4780205452       -6.1641969548       14.5618411248
  H        25.7957283885       -5.2539841456       14.5838160318
  H        24.4975629280       -6.2729101086       14.2489558403
  O        30.5147390870      -11.8955491389       11.6795713021
  H        30.7173763497      -10.9197985795       11.7115086660
  H        31.3826390979      -12.3037354956       11.8700555429
  O        27.8519611525       -4.7816569448       20.5841840219
  H        28.7229059082       -5.2693617087       20.9665361152
  H        27.1996637523       -5.4799540091       20.3538611401
  O        17.4251154446       -5.8474016948        9.4018027967
  H        17.1776757966       -5.2194911321       10.1593913346
  H        18.3781798693       -5.9496667779        9.1956841673
  O        19.3228745470       -7.7878418724       15.0956011720
  H        18.9262964481       -8.0702293506       14.2660582014
  H        18.5289643015       -7.4801403621       15.6668790916
  O        16.3330213563       -4.5819647964       11.6339877193
  H        15.3078511322       -4.5882212035       11.6613149036
  H        16.7424583716       -4.2492550249       12.4706176108
  O        24.2456702784       -3.4388687719       21.6641235939
  H        23.8408176385       -4.2042297659       21.1369365445
  H        23.3867158152       -2.9842954309       21.9760080679
  O        23.7744780344       -6.7562456008       11.2836056743
  H        24.6316160510       -6.2890470961       11.2085030928
  H        23.9793719453       -7.6455494132       11.6413071707
  O        20.8707122933       -4.6957861288        9.4890569612
  H        20.5314378214       -5.5834249487        9.3096539438
  H        21.3998960422       -4.6205307335       10.3543978538
  O        33.4121862638       -0.7230135468       10.6936608792
  H        33.3294700157        0.1230722664       10.2476604000
  H        32.5572300083       -1.2851136939       10.4970726595
  O        28.0299229552        2.4594459296        5.9992502707
  H        27.6276996657        2.8328584411        6.8308641575
  H        28.4916768645        1.5918881204        6.2644873639
  O        28.0632914960       -3.4855765271       17.5768148835
  H        28.0838445581       -4.1469972058       18.2680905854
  H        27.6883084561       -2.6151030829       17.8916416245
  O        27.6709485713       -8.7869296253       11.6846700197
  H        27.4885027037       -8.9020871541       10.7544709104
  H        28.0763050846       -9.5818427178       12.1062045797
  O        25.8557557956       -6.5625404591       19.7388855230
  H        24.9583158018       -6.6013948442       20.0913282737
  H        25.7793082998       -6.6182561364       18.7555744967
  O        26.8997540662       -8.7690218128        8.6327368921
  H        26.1199773029       -9.3306792585        8.8016805333
  H        26.5633633786       -7.8567628225        8.3380233063
  O        18.1014513198       -3.8868381436        3.9378935945
  H        18.1441230131       -4.8522849666        4.1932086648
  H        17.3308734167       -3.5940668305        4.4705993284
  O        24.3960733599       -2.6333648546       24.9395055800
  H        23.9483003368       -2.1532441551       25.6265341145
  H        24.9356588861       -1.9842112268       24.4081165929
  O        25.0537618939       -2.0415804773       19.2457097636
  H        25.0940670246       -2.1835952120       20.2222807081
  H        24.1798943217       -1.5395392711       19.1509913694
  O        19.7348239861        2.0449643839        6.4285932069
  H        20.2860335053        2.3849270012        5.6871960782
  H        18.9496196495        2.6977630356        6.3672865268
  O        22.5808844233       -0.8353671391       19.1815362011
  H        22.2379093739       -0.7291529561       18.2080275833
  H        22.0584856753       -1.5268073260       19.6215798910
  O        29.1752424816        0.2641047725        6.5763137153
  H        29.9599501927       -0.0024354672        5.9795902488
  H        29.5057890904        0.1883038823        7.4859429864
  O        26.1445840548       -0.6728409930       10.9843484792
  H        26.7287673054       -0.1794513899       11.5769872020
  H        26.6498151537       -1.2395334925       10.3357498997
  O        23.5151233141       -2.0606184094       15.3703908858
  H        22.7491755815       -2.6110057471       15.2174406449
  H        24.2734268431       -2.6767637241       15.6030397992
  O        18.9121303408       -0.3983501818       17.6201020605
  H        18.6931511196       -0.4036742679       16.6519132950
  H        19.1623789872        0.5542675332       17.7987850482
  O        19.2591258544       -2.6332648272       10.1039683152
  H        19.8047925108       -3.4286802705        9.6402061604
  H        18.4223560263       -3.0419900292       10.3178408237
  O        32.1855424230       -7.2050611843        8.5722030174
  H        32.4284723368       -7.3713439616        7.6389509473
  H        32.3238813062       -8.0651521196        9.0563126102
  O        20.3398432353      -10.1897231996        9.2490510436
  H        20.4034037231      -10.5122677975        8.3268565881
  H        19.4241506035      -10.3322303135        9.4887295315
  O        13.5856925915       -4.7453023251       11.4965808626
  H        13.4315146669       -4.2314983050       10.6786160240
  H        13.0589317187       -4.2585265867       12.2046029467
  O        21.6448562127        0.2079389982       13.0117439516
  H        21.4087272091       -0.2456244146       12.1973680162
  H        20.9330442835       -0.1208638703       13.6576701060
  O        23.1085728883        1.7692339584        7.5603821456
  H        22.5438582297        0.9980075700        7.3541771876
  H        23.5352325226        1.6067364401        8.4104573931
  O        22.7452115957       -7.2525380904       14.3602878153
  H        22.1308997413       -7.4800065440       13.6505363550
  H        23.1212545152       -8.1083805742       14.6151131350
  O        20.4870567803       -7.2160093421       18.2642474458
  H        21.3944039096       -7.6573100263       18.4389797411
  H        19.9555932379       -7.8287780242       17.7011098206
  O        12.3165220304       -6.5371615179       17.1527935864
  H        12.0000308358       -5.6749384288       17.4993338556
  H        12.6645745633       -6.3838791775       16.2121186616
  O        28.2482186061        1.0508892395       12.9703519737
  H        28.2591054486        1.4828670453       13.8582588025
  H        29.1733146388        0.6979215395       12.8128673193
  O        23.5867637351       -4.1864810722       18.1003411563
  H        22.9470488136       -4.0261768177       18.9215553262
  H        24.2807461304       -3.5317189480       18.2513077186
  O        30.1858223180       -8.4731125587        6.2521314772
  H        29.2607291897       -8.9238358759        6.0654048193
  H        30.0876592707       -7.9633304974        7.0591748208
  O        15.6269696505       -7.2419718971        2.5227183289
  H        16.1307574002       -7.0417205212        1.6573025751
  H        14.6462253165       -7.0622042173        2.3636266453
  O        18.6680276207       -9.3616385150       -0.6828391681
  H        19.6706457399       -9.2362829972       -0.5221055723
  H        18.1615722205       -8.5635825872       -0.4137854654
  N        21.4758991148       -5.2794264745       16.2018116565
  H        20.8166981325       -4.7944890600       15.6201335391
  H        21.9843366394       -5.9959823653       15.6197285253
  H        21.0983108794       -5.7945491000       17.0212030282
  H        22.1135905651       -4.5820959337       16.6690920863
