     194
 CELL 12.4294 12.4294 12.4294 90.0 90.0 90.0 i =    47620, time =    23810.000, E =     -1097.1195151277
  O        -0.1566297473        1.5559385855       10.4586903279
  H        -0.5633682093        1.0798642023        9.7695180993
  H         0.7483248275        1.6799721757       10.1474781775
  O         6.6396167718       -9.8505860330        7.1107599434
  H         6.0081411791       -9.1956860448        6.7267590982
  H         6.0589989989      -10.5221966551        7.4842234639
  O         2.5750556005      -10.7903413900       10.2902880501
  H         3.0301939962      -10.0456460284       10.7668619174
  H         3.3306518448      -11.1282927379        9.7518729202
  O        -2.5035415030       -2.2242858869       11.7784907064
  H        -2.8381390598       -3.1341424670       11.9484719912
  H        -3.1627726747       -1.5567224580       12.0735196612
  O        -7.8420857552       -8.2842755883       11.4214094463
  H        -7.4251173739       -8.3290374496       12.3468841292
  H        -7.1744211233       -8.7346644774       10.8888053517
  O         5.7262840109       -4.1145899415       19.1726406772
  H         5.5989456634       -4.1802044953       18.2399825449
  H         6.5864650585       -3.6295309025       19.2455142714
  O         1.6682708450        2.1464380244        0.7502917492
  H         1.9432767702        3.1349369810        0.8469208985
  H         2.1899377907        1.7828440135        0.0768081915
  O         6.7665929892        3.4209837961        9.7256879449
  H         6.6631717936        3.1842096076        8.7430679371
  H         7.0779579654        4.3808891341        9.7109254873
  O        -0.3266793922       -3.6643439324        1.4565786867
  H        -0.7683782738       -4.4311191708        0.9746519795
  H        -0.6148475234       -3.6786131697        2.3789605071
  O         3.8969879862       -1.7240208934        6.8863526336
  H         3.0318883061       -1.8404824217        6.3930210749
  H         4.4238168452       -2.5478291495        6.8185102086
  O         4.0015509336       -6.0554118332        2.5719462778
  H         4.6097961520       -5.6790577790        1.8740021068
  H         4.5816440538       -6.6866382404        3.1118674944
  O        -0.5580767569        3.3209633710        7.0625714657
  H        -0.3542154766        4.0923795624        6.4865021809
  H        -1.0990565432        2.6154101535        6.6436295459
  O        -4.5864482508        0.0633489696       12.4552247686
  H        -5.3115105219       -0.0459811931       13.1519993011
  H        -4.0873452083        0.9051146394       12.5617056352
  O         3.7933844984       -5.6311327760        8.0778834752
  H         4.5185564066       -4.9855187710        7.8445172892
  H         3.8514648091       -5.7123331483        9.0352141442
  O         0.9513172441       -1.4366030920        7.8586143034
  H         0.6474187993       -2.3512412511        7.9312379541
  H         1.7828653751       -1.4552531140        8.4467843464
  O         6.8567483653       -0.1948558436       10.0390589466
  H         7.6178953339       -0.3269570435        9.4977501047
  H         7.2728030056        0.0300388789       10.8906460581
  O         5.2601121992       -4.1950119705       10.5324342820
  H         4.4723543657       -4.8716127416       10.5521973824
  H         4.9324294878       -3.3456256435       10.9720412527
  O         5.6952315038        3.2767163382       13.8191473289
  H         6.5409372875        3.8354052454       13.8036425138
  H         5.3272368643        3.5787661198       14.6752984556
  O         4.1653250108        4.0659170720        6.6938601813
  H         3.5796934380        3.3738860151        7.1951080674
  H         4.2509819969        4.8337279656        7.2667416523
  O        -1.2776205492       -8.8476174308       12.3991296518
  H        -0.4761360598       -9.4609695158       12.2443471186
  H        -1.9968743565       -9.1683710581       11.7982898670
  O         5.5084386616        0.1929359785        1.4626375479
  H         4.9617800657       -0.0766949524        2.2268870351
  H         5.6794989418        1.2253184698        1.6172189566
  O         0.4322100402        6.4099811003       10.1821597338
  H         1.3763033312        6.1819903010       10.3860215319
  H         0.0863085234        5.6865580827        9.6058718724
  O         8.6694297592       -1.6284616087       15.5895654848
  H         7.8679299215       -1.6593365290       15.0607966467
  H         9.3052101502       -1.1618874698       15.0833033600
  O        -1.4468933782       -0.7863887403        2.0039824286
  H        -0.9071283377       -0.0877888087        2.4116581741
  H        -0.9275341011       -1.6175626657        1.8997506560
  O        -0.5433895318        1.3644823751        3.6888852172
  H        -0.1568017096        0.5694170231        4.1135338987
  H         0.1864139992        2.0658340654        3.7316625714
  O         7.6272890570       -5.6686918061       10.0311505532
  H         8.0338132145       -5.9197713347        9.1779074295
  H         6.8387661558       -5.1125450458        9.8871600377
  O        11.0454049822       -8.0590821645        9.1206322229
  H        10.9102102500       -8.5588293301        9.9951591615
  H        11.3077338348       -8.6718641944        8.4255620164
  O         6.4082934044       -2.7145516825       13.7740393908
  H         5.4576599183       -2.5671886330       14.0679347862
  H         6.5449784206       -2.2288953687       12.9587242650
  O        -2.0775925265       -4.4051209513        6.4481685209
  H        -2.5731735056       -5.2421032688        6.7479645124
  H        -1.3586091704       -4.2060186614        7.0732493141
  O         2.0412521577       -7.4348511961       13.7853558213
  H         2.7446101668       -6.9487091692       14.3045989069
  H         1.3178561827       -6.8711938421       13.5418043588
  O        -3.2342949013       -1.2082612469        9.0558922608
  H        -3.4395748151       -1.9166834689        8.4441831905
  H        -2.8513392083       -1.6336277887        9.8349370916
  O         1.6171478738       -0.1015964958       14.5909975695
  H         1.7116532728        0.8171273622       14.2666746847
  H         1.8362319994       -0.1658516488       15.5801786848
  O         1.8498393421       -4.7874165650        6.5437428731
  H         1.4271761661       -5.5377381095        6.0893887959
  H         2.5965029204       -5.2494947655        7.0316455907
  O         0.4164397766       -0.8971498242        4.8319651874
  H        -0.2198493137       -1.6122413045        4.8619905704
  H         0.7556298643       -0.8800558774        5.7533662995
  O        15.0342311529        1.3082038807        4.9442243898
  H        14.7614306516        1.6754979703        5.8983166318
  H        16.0137997340        1.2818759952        4.8698748564
  O         9.9363483714        3.4437065842        2.4134293930
  H        10.4842733230        2.8066372702        2.9437822341
  H        10.2322745230        3.3482374015        1.4837425443
  O         8.6795546745       -4.7505082083       14.7741242796
  H         8.8718471272       -4.6854329796       13.7731025442
  H         8.6744528268       -3.8162249392       15.0686986380
  O         9.1913247018       -6.6730788388        7.6432555652
  H         8.7100599343       -7.3148335252        6.9924886140
  H         9.7908071347       -7.2296434245        8.2110117613
  O         3.9090680794       -3.8859734632       17.0602033932
  H         4.0177458269       -4.5067621916       16.2876452662
  H         3.1281337595       -4.2229537685       17.6018811682
  O         7.8515868606       -7.6806990371        4.9249404789
  H         8.0056063094       -8.6252104972        4.7978863729
  H         8.6861092072       -7.2877748964        4.5637850165
  O        -3.3558579715       -4.7160734954       -0.4793225086
  H        -2.6264320807       -5.3283477768       -0.4306674266
  H        -3.9808023057       -5.0483936163       -1.1355146387
  O         5.0764277648       -0.1651563514       16.6410710814
  H         5.7770644363        0.2642525818       17.1989502508
  H         4.5204468569       -0.6260967647       17.3347033207
  O         3.4453295318       -2.1267449507       14.6523536896
  H         3.3036388274       -2.5259785865       15.5040207424
  H         3.0472713949       -1.2353884126       14.6224535508
  O         0.5732906110        5.2748118401        5.5364498604
  H        -0.2121262968        5.5502398406        4.9749818779
  H         1.0239788913        4.6869030899        4.9013691487
  O         5.0111900627       -1.3060264023       11.4948719929
  H         4.8974399485       -0.7034716909       12.1705077034
  H         5.6641674157       -0.9308663595       10.8774959044
  O        10.2028378008        1.2749229387        6.0415382964
  H        10.8633206797        0.9915168231        5.3616558507
  H        10.5291099340        0.7505380234        6.8441180626
  O         7.8217404701       -0.0873360595        5.4169993623
  H         8.5054083241        0.4939404506        5.8315589106
  H         8.2164438003       -0.3859796983        4.5980980993
  O         4.7623345399        0.7704283451        8.4063844504
  H         4.5432604518       -0.1018446000        7.9869232921
  H         5.4957425277        0.5471839536        9.0467137927
  O         1.3800524252        3.4242809600       16.2824212784
  H         1.5008885451        3.8559709008       15.4378971239
  H         2.0428420769        2.7025968651       16.4573866810
  O        -1.0398225843        0.2394966745        8.3172719500
  H        -0.3402194345       -0.4077430429        8.0579587732
  H        -1.7588432194       -0.4895486807        8.4998469217
  O        10.9042945999       -2.9716662968        4.1159875613
  H        10.8128873414       -3.7212452548        4.7776107510
  H        10.0172895909       -2.4876859887        4.2236989154
  O         0.0879827244       -3.9068600385        8.1189862341
  H         0.1713264196       -4.2892796054        9.0147272268
  H         0.8455279091       -4.3261012074        7.5335809718
  O        -4.3908964735       -2.4378632786        6.9872903410
  H        -3.7677504819       -3.1289125466        6.5815603576
  H        -4.3493513725       -1.6698691960        6.3974363833
  O         2.0159035321        2.3988016874        7.2345046486
  H         1.0164631201        2.6722036231        7.1969191874
  H         2.1246158541        1.7299455959        7.9459158338
  O         5.5434775384        4.6173918892        3.8590055467
  H         6.4780073067        4.7360689968        4.1648508434
  H         4.9871666274        4.4338531075        4.5793642078
  O         3.0538633656       -6.0631055500       10.7485197754
  H         2.8434593792       -5.7146564539       11.6677830945
  H         3.6269660984       -6.8664280369       10.9592850159
  O         2.1859090461       -4.1245044993       12.9538925133
  H         2.6438758792       -3.4937554101       13.5983141550
  H         1.2398492181       -4.1365684311       13.4078657287
  O        -6.1675156586       -5.4710167143       12.9275456598
  H        -6.4949275464       -4.9871744631       12.0972463188
  H        -5.7597137856       -4.8067255783       13.5255616210
  O         8.5999715882        2.9073070426       11.7401148634
  H         8.1237138782        3.1199868851       10.8538094990
  H         8.4609133142        3.7476079567       12.3170644087
  O         2.3205404219       -2.2175744259       10.7993462523
  H         2.2495616980       -3.0157358646       11.3368222172
  H         3.1738721741       -1.9240873103       11.1589789059
  O        10.2835516217       -6.6929005169        3.8782975049
  H        10.2968690786       -7.2889149901        3.0789971190
  H        10.0318159758       -5.8282150777        3.4783744498
  O        -4.4123631199       -7.4292757515        0.7867369419
  H        -5.0611855302       -6.6961962388        0.5895097602
  H        -3.9314028876       -7.1016535494        1.5954670922
  O        -0.7042405765       -5.8717198098        0.1437081986
  H        -0.9708728590       -6.8027300959        0.3731121224
  H        -0.4307089905       -6.0220319516       -0.8518231458
  N         0.2388162765       -0.8068673810       12.1795406444
  H        -0.0102854651        0.0665402284       11.7043908291
  H         0.9484359467       -1.3034713077       11.5696480288
  H        -0.6822890294       -1.3306538725       12.1243060344
  H         0.5826572402       -0.7359351513       13.1591539801
