     194
 CELL 12.4294 12.4294 12.4294 90.0 90.0 90.0 i =   100020, time =    50010.000, E =     -1097.1108062448
  O        22.7897854174       -1.8790342297       16.3409837588
  H        22.9130479517       -2.6247300985       17.0419851085
  H        22.1286414771       -1.2841689487       16.7241588547
  O        25.7592129079      -11.6162676626       10.3813699610
  H        26.3241969450      -11.4573479996       11.1832556434
  H        26.3315685886      -12.2273837028        9.8408792418
  O        24.6401123117      -12.7465613343       17.7008071756
  H        25.4788594807      -12.3250987968       17.3767607206
  H        24.3968236707      -13.5661891364       17.1487123511
  O        20.2867408187       -4.1766566444       14.5700310573
  H        20.0772286939       -3.6236623617       15.4135851487
  H        20.9503737604       -3.7397304149       13.9228495804
  O        14.1082467901      -11.1703272281       16.7409864423
  H        14.7864774922      -11.1352054857       17.4194628826
  H        14.5389640595      -11.7981374909       16.0990569301
  O        30.5981436888       -7.6922680878       25.2852722110
  H        30.6955922954       -6.7275885272       25.3804413847
  H        30.7600267468       -7.8440493595       24.3423102174
  O        22.4113503030        1.0587332742        6.3538579612
  H        22.3663638990        2.0435827699        6.0454262313
  H        23.2291705316        0.6794322608        5.8839001884
  O        27.0370442833       -0.5185873274       14.6866477396
  H        27.4461518969       -1.4092086668       14.7746701607
  H        26.0757454193       -0.7092929667       14.5603213063
  O        22.3182084148       -5.8193688940        7.1388071302
  H        21.3654973167       -5.5718902448        7.1414951946
  H        22.5154561246       -5.5716396250        8.0559495545
  O        23.8347205743       -5.8071128179       12.3849921641
  H        24.4599212619       -6.5594576679       12.3391797589
  H        24.3147896591       -5.1079063455       12.9225115830
  O        24.0380594870       -7.9759609628        7.7268709136
  H        24.6186775005       -7.6183484389        7.0612460576
  H        24.2967844333       -8.9499992444        7.8765576335
  O        19.0296994185       -2.3387227522       10.5569894679
  H        18.5505047887       -1.5534079151       10.9363233289
  H        19.8578054424       -2.4212641773       11.0613115890
  O        16.4402236129       -1.8465307656       16.0767584659
  H        15.9540495619       -1.9478615552       16.9603360363
  H        16.8040705318       -0.9086324601       16.0922438640
  O        27.4964347185      -11.3085556137       12.3263859891
  H        27.7764403298      -10.6575155574       13.0183557548
  H        27.2512157892      -12.0573315338       12.8965300703
  O        21.9639542245       -6.4331750898       14.1918580090
  H        22.5721258750       -5.9732562830       13.5888032593
  H        21.2429973991       -5.7760206097       14.4588162957
  O        31.1392671147       -1.3490862647       13.7897375763
  H        31.7494839845       -2.0366807135       13.5649340528
  H        30.2306722715       -1.8070952027       13.8390062210
  O        30.4210313839       -6.0127439185       16.4153313698
  H        30.2610108536       -5.6429743957       15.5123362585
  H        30.9980257036       -5.4665152643       16.9339365772
  O        28.7113542339        1.0016250980       18.8152453309
  H        28.4230093098        1.4768835043       19.6590249812
  H        28.7936256849        0.0269856487       19.0549306839
  O        25.5322015895        5.4316380860        9.5665223890
  H        24.7669047781        4.9512411574        9.2082788192
  H        25.6548578033        5.0452024878       10.4542407826
  O        17.3381799251      -11.4936835239       16.2643990334
  H        16.9778993427      -11.0780131121       17.0337744724
  H        17.2299621598      -10.8377269752       15.4774139281
  O        28.8810489067       -1.4968910551        6.7832385019
  H        28.3093278472       -1.5329717886        7.5657803456
  H        29.8305958207       -1.4973610132        7.0803708632
  O        23.2420437691        2.1898625176       13.7013471643
  H        22.9806592075        2.1625328037       12.7480399521
  H        23.3058758595        1.2042982712       13.9587953567
  O        29.6880800544       -4.3635117630       23.3311562717
  H        30.3911018744       -3.6793695128       23.1480346355
  H        29.7887419582       -5.0325112290       22.5753671252
  O        23.3920740818       -3.4794424672        6.1551223619
  H        22.9194040485       -4.2236032950        6.5665775496
  H        22.9864580307       -2.7761101046        6.6642194467
  O        22.0318369300       -2.1763074275        8.2384324203
  H        22.1526427459       -2.9905229628        8.7791245074
  H        21.0197031757       -2.0567373464        8.1007809762
  O        27.7966273032       -7.5107909960       16.1772649224
  H        28.6346263547       -7.1098436819       16.5744718263
  H        27.6603215110       -6.9988051007       15.3623462919
  O        31.8289629937      -11.2018819205       12.8777143498
  H        32.3108258148      -10.5879160284       13.4293315646
  H        31.6274682858      -12.0561354427       13.3666917100
  O        30.2387506011       -5.7066128526       20.6257628117
  H        30.6306093273       -6.6215823741       20.9953301498
  H        29.3496031467       -6.0762179753       20.3299554272
  O        20.9839748627       -7.5705161355       10.4050224355
  H        20.3128718454       -7.6216657000        9.7533866641
  H        21.4765317464       -8.4385435720       10.3332241944
  O        19.5457560509       -8.7983013539       16.7484107646
  H        19.9330014755       -9.2970823027       15.9369656425
  H        19.1106136601       -8.0489359490       16.3498661396
  O        17.9106412619       -5.0372616385       13.3134610762
  H        17.6796118409       -4.8404165029       12.3355469419
  H        18.8583840641       -4.7226040413       13.5253671548
  O        25.7789769457       -4.1552898992       20.9614748206
  H        25.5145620486       -5.1407093744       21.0863393708
  H        25.0507648033       -3.6199366453       20.6132695866
  O        25.8772979377       -7.6453760329       12.3663684310
  H        26.6842700384       -7.1738874316       12.7576776912
  H        25.5627541294       -8.2805025948       13.0875052150
  O        22.4199969440       -5.0369005734       10.0204444983
  H        21.9983660714       -5.9461806701       10.0361568356
  H        23.1817546882       -5.1524862865       10.6190853753
  O        35.6836257030       -0.7978728499       11.2932721257
  H        36.3943598831       -0.3475020244       10.7323102013
  H        34.8062181501       -0.4096014046       11.0714334967
  O        30.9427431466        2.3385722882        6.3733201169
  H        30.0733196811        1.8208545146        6.2403433714
  H        31.1112878534        2.7819923135        5.5045348014
  O        32.0115679863       -4.9261306829       18.5181268785
  H        31.3757812830       -5.0263693500       19.2231731180
  H        31.9809668183       -3.9603867472       18.2340760038
  O        30.0366413549       -9.5984955815       10.5317031175
  H        29.2738546188       -9.6684341442        9.9061541853
  H        30.3219819099      -10.4856254712       10.7325328800
  O        27.7288480689       -7.3164274330       20.3574648812
  H        26.9671624344       -6.9151278624       20.8437917449
  H        27.3903454673       -7.2914885442       19.3996778827
  O        27.8454199268       -9.9748566482        8.6485849708
  H        26.9044495298      -10.1959537682        8.7057653727
  H        27.8654053045       -9.0108565504        8.3394567423
  O        18.9914708922       -2.7371079270        4.2356179669
  H        18.0947182752       -2.3533700937        3.9219850106
  H        19.6152199729       -1.9359067499        4.2392885864
  O        25.8631010887       -4.0505228545       26.2523104786
  H        25.8253683779       -3.6533087846       27.1364756868
  H        26.1578067060       -3.3718705651       25.5549211816
  O        27.0325428883       -1.2071614009       21.3612854480
  H        27.0196315889       -1.9368385235       22.0234006719
  H        26.0862604840       -1.2095429255       20.9306238750
  O        20.1006143429        1.0051451396        8.1357568995
  H        20.9907829278        1.2137213072        7.8635048277
  H        19.4654129086        1.4818074622        7.4407940597
  O        24.7372296495       -1.1301667596       20.2882253205
  H        24.7237273733       -0.9740974429       19.2523728638
  H        23.8052857348       -1.3438385127       20.3922726308
  O        31.7760390648       -1.3921512361        7.7422173576
  H        32.0486082985       -0.4584100050        7.9506431904
  H        31.4279413789       -1.8074209847        8.5115331580
  O        27.0354277966       -3.3682344798       11.1426144583
  H        26.4927750844       -3.9811232688       10.6430150421
  H        27.9702246815       -3.6204021356       11.0798237712
  O        25.8001919310       -3.3748314359       16.4987626201
  H        24.9959053845       -3.6768933639       16.9337990000
  H        26.5274140703       -3.6243420810       17.0808710331
  O        20.4996752845        0.1386651845       16.8740836149
  H        19.6622296669        0.6269223379       16.5706632825
  H        20.8211495549        0.7389975004       17.5801905722
  O        21.5293683505       -3.1133923384       12.1613678553
  H        21.6604466957       -3.7491079248       11.4179870854
  H        22.3434634424       -2.5866224573       11.9408925886
  O        35.0917140517       -9.6816487436       11.1714756749
  H        35.6568148473       -9.9045599987       10.3225115387
  H        34.3201915285      -10.3079056716       11.0427845412
  O        20.9018378508      -11.8555319749       10.8109865715
  H        20.4243153574      -11.8852052645        9.9740719063
  H        20.2496102764      -11.6701347845       11.5891278909
  O        15.0532931735       -6.0694815525       13.8649415043
  H        15.8608190210       -5.5161984821       13.7137634384
  H        14.5117358048       -5.2987148261       14.0138669007
  O        24.2593600881       -0.5488328535       14.0739891827
  H        24.1004467413       -0.7319563056       13.0776767704
  H        23.5416600508       -1.0852096328       14.5940632126
  O        23.9593262996        1.9717897071        8.8927947756
  H        23.4612214634        1.4718363571        8.1703881075
  H        24.6981511294        1.4053550657        9.2153782276
  O        25.2185622213       -8.9016894826       14.9221129766
  H        24.6704781450       -9.5419435911       14.3233295081
  H        25.7991166262       -9.4743270384       15.4607176057
  O        21.8660901675       -8.3884123458       18.2729520282
  H        22.0615330199       -7.8763326552       19.1178286354
  H        20.9161183562       -8.2110731237       17.9986776270
  O        13.4216606194       -6.4633644622       18.0321223154
  H        13.6691585894       -5.5531976732       18.2442291226
  H        14.1244115368       -6.7195239412       17.4131177576
  O        29.8148594347       -0.0122619861       11.0138804872
  H        29.4716525380       -0.2949003398       10.1429494345
  H        29.0933945811        0.3581801245       11.5739693342
  O        27.4411028887       -4.1664916014       18.6810400684
  H        27.0070115974       -3.9940760330       19.5910124692
  H        28.4127130408       -3.9831219082       18.8050440247
  O        31.3157632128       -8.2312869745        8.6117142812
  H        31.0801186010       -8.7337801869        7.7967956435
  H        30.9340658259       -8.7032418429        9.4400074910
  O        16.4132333988       -9.4916709725        1.9863883986
  H        16.9804703209       -8.9160764254        1.4534461658
  H        15.9364697741       -8.9339807921        2.6660143986
  O        20.3846300130       -9.0120996794        1.7157558463
  H        21.1673200147       -8.3955520942        1.5564268998
  H        19.5802701121       -8.4938471438        1.3691678789
  N        23.4741159765       -7.3835251085       16.3731478711
  H        24.1130304205       -6.6702085273       16.8732386846
  H        24.0560506112       -8.1621535271       15.9182579652
  H        23.0477467874       -6.9168136451       15.4761313833
  H        22.6795723884       -7.8499512994       16.9334337944
