     194
 CELL 12.4294 12.4294 12.4294 90.0 90.0 90.0 i =    52820, time =    26410.000, E =     -1097.1361802742
  O         2.6290186499        1.1161618184       11.3878441277
  H         2.2826953036        0.9729644778       10.4927710991
  H         3.5784006380        1.0202620033       11.3435969115
  O         8.2467930631       -9.3727052077        8.7236153444
  H         7.4645056089       -8.9940519871        8.3566925129
  H         8.1456542815      -10.3435462186        8.5777835290
  O         5.5688380450      -11.1917260535       10.9136586325
  H         6.2167633467      -10.4159847788       11.1270255017
  H         6.2412264220      -11.9696271136       10.7740418280
  O        -0.3406411857       -2.0106977375       12.2701294566
  H        -0.6096497566       -2.7924767960       12.8424043193
  H        -1.0669637864       -1.3792884661       12.4539465134
  O        -5.7602898539       -9.0429538671       12.0912491155
  H        -5.5127301154       -9.3932406921       12.9750914571
  H        -4.8769741672       -8.6084978596       11.7206486934
  O         7.3639831694       -3.6254458464       19.5731696485
  H         6.9927884552       -4.1818356097       18.8353419132
  H         8.3522696512       -3.4220993681       19.4591258754
  O         4.7045553285        1.3231926337        1.2570658717
  H         4.4695425414        2.2438705835        1.5436626446
  H         5.2109969156        1.4595490346        0.4343578004
  O         8.9962474566        4.1683417869       11.0942449945
  H         8.9208746524        3.7833562321       10.1490044770
  H         9.2694899356        5.1007894662       10.8903923952
  O         2.3308808231       -3.7922860105        2.4808932081
  H         1.6630637932       -4.4782321247        2.2445829417
  H         2.3634340104       -3.7856597437        3.4518672934
  O         5.9168704368       -1.5371612427        7.2713436907
  H         5.1152202070       -1.6103258181        7.8598021926
  H         6.4883609754       -2.3341300102        7.3067119362
  O         6.6519519790       -7.3144829186        3.8087272394
  H         7.5271623886       -6.8874763635        3.4872230292
  H         6.8556125944       -8.2612142427        4.1176415619
  O         1.5508047354        3.2462755392        8.0750136051
  H         2.0914562047        3.5368106533        7.3126122365
  H         0.9778811154        2.4630297805        7.7706794473
  O        -2.0924826090       -0.0898170442       12.8036929587
  H        -2.7675439962       -0.0291730955       13.5278760715
  H        -1.6614659982        0.8216408066       12.6316509991
  O         5.6140020253       -4.8536461725        8.9688935670
  H         6.2953388883       -4.2025644103        8.8762945782
  H         5.0946298546       -4.4305603767        9.7571031884
  O         3.4639007587       -2.1282766813        8.6323293921
  H         2.7792383090       -2.7464425018        8.3042551963
  H         3.6334865145       -2.4904808520        9.5453090178
  O         9.0209815295       -0.9743067667       10.5770516858
  H         9.8033007236       -1.4500249144       10.1948829141
  H         9.4313784298       -0.4024736377       11.3078687261
  O         7.5823372567       -5.1377942676       12.0879936228
  H         6.8006734178       -5.7776176263       11.9821728367
  H         7.2159731084       -4.2030257478       12.0626700953
  O         7.6985698392        2.4310437843       14.4476510002
  H         8.5414626280        2.9574465136       14.4311519867
  H         7.4620431373        2.1752474697       15.3705167756
  O         5.7460051087        4.5705040068        7.5649752542
  H         5.0419043019        3.8920246836        7.6043786979
  H         5.4756996280        5.3427183129        8.1589777516
  O         1.1115478255       -8.5442577208       11.8184845355
  H         1.8696501245       -9.2014930778       11.7755280570
  H         0.3740712193       -9.1851068020       12.0672706023
  O         7.9960695648       -0.3724317473        1.9150571059
  H         7.9338240341       -0.5746809035        2.8875952477
  H         7.9049952588        0.6210722759        1.8051863116
  O         2.9824827054        6.1594960841       10.4566343745
  H         3.7709110951        5.8748366013       11.0307899829
  H         2.5173510741        5.3630152299       10.1037797828
  O        10.8089146835       -1.2728791683       17.6584873550
  H        10.1434059880       -1.3759528317       16.9250693436
  H        11.6211263723       -1.4120414944       17.1080628910
  O         0.4782591685       -1.1712353389        3.3059135257
  H         1.0239425342       -0.3800625780        3.5477213589
  H         1.1203077645       -1.8695316368        3.2623086152
  O         1.9106251345        0.6067886513        4.8431096553
  H         2.5516108637        0.0424553128        5.3300606452
  H         2.2741635162        1.4686884282        4.4584646105
  O         9.7247623444       -5.7447626259       10.5574468041
  H         9.7730860967       -5.5171992494        9.6011185982
  H         8.9110134335       -5.4397971301       10.9866828784
  O        12.6509384830       -6.9453588660        9.5638257369
  H        12.6203051831       -7.1368688236       10.5409531734
  H        12.8556303721       -7.8323408354        9.1204929186
  O         9.4937948375       -3.3011500892       14.7939764277
  H         8.9912843643       -2.7183334794       15.4918512778
  H         9.1970864347       -2.9667289304       13.9227550462
  O         0.1962693269       -4.8713060103        6.0729858343
  H         0.3447558045       -5.6836677416        5.5308174376
  H        -0.6467941707       -5.0019480432        6.4509235358
  O         4.4766471022       -8.0946816701       14.6130574550
  H         5.2462690289       -7.6930985900       15.1059258809
  H         3.7890305147       -7.3691195317       14.6117068986
  O        -0.7388136514       -1.7095349130        9.6910956154
  H        -0.7146856248       -2.2589659062        8.9136631763
  H        -0.2678559936       -2.2007394429       10.4795338446
  O         4.3245794284       -1.3142687910       14.6821297602
  H         4.7371361177       -0.4412549711       14.4419148494
  H         4.2107533615       -1.2315417909       15.6554094970
  O         3.9063940433       -5.2275180538        6.6874787743
  H         3.4444200666       -6.1185925105        6.6332669277
  H         4.3643483431       -5.1812701181        7.5620099037
  O         4.0898047195       -1.2029371771        5.2247117554
  H         3.3043333061       -1.8936884835        5.3714348001
  H         4.8033151837       -1.5510532667        5.8149625931
  O        17.6878873853        1.2675751167        6.2206988307
  H        17.1558288449        1.5183183133        7.0376763548
  H        17.2148217101        0.4592254546        5.8741078291
  O        10.6579917822        3.6224498355        4.8629137287
  H         9.9251988229        4.0184984914        5.4570721064
  H        11.1243462890        2.8942889515        5.3822644894
  O        11.8405377937       -4.7859016486       15.4733941910
  H        11.4466968683       -4.5543379299       14.5738082772
  H        11.3871433534       -4.1153654826       16.0419977296
  O        10.8740435213       -5.5758730050        8.0968648038
  H        10.4697576911       -6.2874721214        7.5428811854
  H        11.4979503464       -6.0373028700        8.6903093800
  O         5.9533846698       -5.0297498522       17.4198574327
  H         6.2452938400       -5.8903519085       17.0660194927
  H         5.1131839492       -5.1467070456       17.9648860085
  O         9.2335251411       -7.6900732606        6.7616028438
  H         9.0829871663       -8.3165117616        7.5077204243
  H         8.4033709519       -7.1678417144        6.7332134519
  O        -1.0184133400       -4.8100381508        0.2009194212
  H        -0.3622173181       -5.5433632026        0.3944597223
  H        -1.5980931657       -5.1404121687       -0.5337601054
  O         7.7171750382       -1.2663069952       17.0891547857
  H         7.4812614876       -0.8587851365       17.9391075878
  H         6.9743306753       -1.8506820685       16.8415290340
  O         6.3589177767       -3.3810258339       15.4451839793
  H         6.0190505246       -3.9440354958       16.2161755920
  H         5.7057495505       -2.6731271105       15.2036543672
  O         2.6738273950        4.9157630599        6.0449054742
  H         1.9022992799        5.1603258371        5.4540837652
  H         3.0956372541        4.2532688078        5.4356511075
  O         6.9367217184       -2.1357074555       12.1243349675
  H         7.2549200322       -1.8070896303       13.0051059141
  H         7.7400159388       -1.9505164293       11.5553432691
  O        12.3056922568        1.6824602016        6.3454564294
  H        13.0390877382        1.2127771030        5.9548805500
  H        12.0664285874        1.0030196375        6.9743821790
  O         9.1820416902        1.1550093949        6.1313093425
  H         8.5638207003        0.8233724302        6.8462042343
  H         9.8824633457        0.4387584478        6.1283831491
  O         7.6305344346        0.3817020450        8.4594256240
  H         7.0898094674       -0.2406402974        7.9629726132
  H         8.1012270053       -0.1652271755        9.1603656464
  O         3.5370797306        2.8778240034       16.7551726998
  H         3.8965516250        3.4387056754       16.0523947072
  H         4.3367768624        2.4374048021       17.1623978740
  O         1.4881292493        0.0023857549        8.6474212756
  H         2.3767301992       -0.5275238818        8.5513443092
  H         0.8033743648       -0.6692155158        9.0060867565
  O        14.8745334977       -3.1654088571        5.4310543662
  H        15.4441885028       -3.8852792525        5.9276847339
  H        13.9595766202       -3.3937056966        5.7292338037
  O         1.3929245451       -3.9555892375        8.7073574508
  H         1.7673822391       -4.2798891190        9.5225100658
  H         1.4004831803       -4.7253517537        8.0722776696
  O        -2.3883517732       -2.9532865424        7.4777102618
  H        -2.0143954666       -3.8222532536        7.7602217165
  H        -1.9744211652       -2.6148213875        6.6465881860
  O         4.0305748850        1.9824378970        8.5899569425
  H         3.1719533075        2.4732478586        8.8589519339
  H         4.5260043391        1.8723080781        9.4479118691
  O         7.3152013174        2.6012579356        4.7309426787
  H         6.6143881582        2.2076533377        5.3395674916
  H         8.1495257274        2.2661344387        5.0488637807
  O         5.2040821422       -6.5494661799       11.9352552399
  H         4.8151523714       -6.3300383735       12.8197014475
  H         5.4674458004       -7.5225618522       12.0794711171
  O         4.5566746019       -4.4977183664       13.4722879399
  H         5.1274615682       -4.2445798210       14.1729631104
  H         3.7043542969       -4.3048912008       13.8993504208
  O        -3.8496106624       -6.2383211254       14.6140385073
  H        -4.3156823062       -5.9149639843       13.8302098477
  H        -3.3600884617       -5.4219974002       14.7844987555
  O        11.1292894878        2.6554347472       12.2949336249
  H        10.2983338418        3.0268718629       11.7971053062
  H        10.9749568119        3.1195104755       13.1509780818
  O         4.3964226864       -3.0959305094       11.2485875224
  H         4.3961455440       -3.6588727579       12.0440688824
  H         5.2092610595       -2.5166750319       11.3468756356
  O        12.8635705245       -7.1923576431        4.4287070027
  H        12.0723884239       -7.8378787029        4.6179221272
  H        12.5152935539       -6.6144723940        3.7102317458
  O        -2.1490634752       -8.6771736985        2.3178127830
  H        -2.6122262368       -7.8347784194        2.1610248742
  H        -1.9623402281       -8.7279081668        3.2508598201
  O         1.4616313396       -6.1808657340        0.8344901197
  H         1.2278282252       -7.1393638472        0.7837349427
  H         1.8604242871       -6.0366772777       -0.0096718453
  N         2.3385466155       -1.4919587709       12.7538944914
  H         2.2882677121       -0.5193292473       12.3908714438
  H         3.0280303913       -1.8852897123       12.0469678501
  H         1.3900375592       -1.9402341468       12.7992241704
  H         2.9407894243       -1.4663080035       13.6051528358
