     194
 CELL 12.4294 12.4294 12.4294 90.0 90.0 90.0 i =    34420, time =    17210.000, E =     -1097.1286260819
  O        -5.2937341574        3.2459329680        7.8982176160
  H        -5.8533944556        3.1857552230        7.0870073443
  H        -4.4401137481        3.7323842738        7.6569575297
  O         0.9897278695       -8.8467074198        4.7230218587
  H         1.6369210838       -8.5092829513        4.0021996596
  H         1.6307319125       -9.2877297572        5.3709322355
  O        -2.0230656304       -8.8263464076        7.8664710189
  H        -1.3947126989       -8.1857943385        7.3775495073
  H        -1.2340409108       -9.4112011863        8.1312738481
  O        -7.4243775144       -0.5389216185        8.8605435372
  H        -7.9002942202       -1.4105164633        9.0687718365
  H        -7.8047629268        0.0590356781        9.5732044460
  O       -14.7779207858       -5.7236636122        8.6382955997
  H       -14.5539063911       -5.2572152919        9.4528396266
  H       -14.4242708807       -5.1480525595        7.9677561497
  O         1.0364864335       -3.4621691689       16.1091270432
  H         0.8717597381       -2.5541752898       16.3236467355
  H         1.3069708525       -3.5469731685       15.1895218698
  O        -2.4512028083        3.9801040610       -1.6239686858
  H        -1.5039171031        4.0832234525       -1.2879360691
  H        -2.3323098953        4.1780560014       -2.5592696649
  O        -0.0660138893        5.0587546161        6.7285049513
  H         0.4143939581        4.6673330479        5.9654273566
  H        -0.2677927391        5.9452202009        6.3518789347
  O        -7.6850876163       -3.7314410406        1.0094527453
  H        -7.3077360072       -4.6133563706        0.6988448280
  H        -7.5041293735       -3.6278961660        1.9738898823
  O        -2.3948969927       -0.3430696294        2.7582823935
  H        -2.8321665557       -0.4916703515        3.6843693161
  H        -2.1295917726       -1.2249989664        2.3809593599
  O         0.3274599110       -3.9875012821        0.9580129574
  H         0.9764670100       -3.9649651151        0.1987987024
  H         0.2420162181       -4.9696316892        1.0944923476
  O        -4.9922759179        4.5553112719        4.9010069107
  H        -4.9892807572        5.2401033813        4.2040485336
  H        -4.1668563231        4.0261903768        4.7727380249
  O        -8.2660312427        2.1413204552        9.9816977011
  H        -9.2413449709        2.1646613992       10.2866858471
  H        -7.8417107417        2.5958952535       10.7782451583
  O        -0.7318586967       -4.8634820313        5.1868849377
  H        -0.0012056489       -4.3727026289        4.7491792350
  H        -1.0609950379       -4.3672076380        5.9284479987
  O        -3.9683111523       -0.6016881412        5.0643564120
  H        -4.2936641929       -1.5239300082        5.1692983339
  H        -3.5200491950       -0.3383856275        5.9485062186
  O         2.0935463877        2.4737656881        6.7964822319
  H         2.6180847822        1.6465714383        6.7150810469
  H         2.5862860749        3.0966205758        7.3684714539
  O         0.7605925644       -0.9898154889        4.9918834561
  H         0.0214691459       -0.2817954204        4.9555446389
  H         1.5450533636       -0.6100130255        4.5509851514
  O         0.2534135986        4.0173719755       11.5883378983
  H         0.6458585815        4.5849959826       10.7948217684
  H         0.3335644913        4.6783781126       12.3246113200
  O        -1.5881628316        5.4496870975        3.5747113004
  H        -1.7220174256        4.6389122977        4.0901460511
  H        -1.2849694430        6.1837298779        4.1847539713
  O        -6.3112519223       -7.4062245969       10.2448529939
  H        -5.5937089405       -7.1924232938       10.8824039033
  H        -6.0008338954       -7.9339485192        9.4954576284
  O         1.6759666966        1.8934461308       -1.6847136748
  H         1.4837629152        1.1164116558       -1.1135502935
  H         1.2573157804        2.6821217586       -1.3036186878
  O        -5.1705599581        7.2894943272        7.3230120094
  H        -4.4215999718        6.7814060213        7.6861081776
  H        -5.8797370193        6.6337872929        7.0808748897
  O         1.7843292193       -0.4963097142       12.2003701198
  H         1.3737861127       -1.3811438860       12.2009051866
  H         2.7378449496       -0.6121066125       12.0870926855
  O        -5.7827244085       -1.9313720332       -0.3937133706
  H        -5.3294000307       -1.3506943782        0.2639554153
  H        -6.3538650570       -2.5066403813        0.1633171843
  O        -6.4981920145        3.1739391782        2.3179000542
  H        -6.3441258523        2.3744762147        2.9843324008
  H        -5.7142945124        3.7947838545        2.2842824340
  O         2.0935845795       -2.9534998886        6.9417368587
  H         2.4683740497       -3.3427049962        6.1391417042
  H         1.4751137200       -2.3369142037        6.5025020459
  O         5.2202395978       -6.4732290051        6.5140772638
  H         4.5838578495       -7.0548509430        7.0781235165
  H         5.7154711463       -7.1286171833        5.9620882317
  O         0.0525013328       -1.6212958668        9.3322674625
  H        -0.6711522003       -1.3276761000        9.9481119264
  H         0.8039870331       -0.9781133919        9.4121234614
  O        -7.1192557984       -3.1813987582        3.6258981783
  H        -7.7673866155       -3.5630313312        4.2824026789
  H        -6.2998664288       -3.1948862277        4.1305111023
  O        -2.7065496243       -4.5343684911       11.1594242978
  H        -2.0281513552       -4.2538512080       11.8695536755
  H        -3.2293242147       -3.7882086138       10.8660111886
  O        -8.6298017118        0.3251596217        6.7310901562
  H        -8.4085061794       -0.1101894256        5.8718461843
  H        -8.2808724530       -0.1816423257        7.5906411108
  O        -3.6251216001        1.4654939094       11.5583936945
  H        -3.0732851768        2.2811042083       11.4868248160
  H        -3.9199679679        1.2823845249       12.4760992529
  O        -3.5124593929       -4.0801488133        3.4046766428
  H        -3.8199076079       -4.8451629007        2.9357858906
  H        -2.6995967872       -4.4603040959        3.7458331279
  O        -5.8302890970        0.9234061224        3.8060502223
  H        -6.5684936508        0.2903300442        4.1120563011
  H        -5.0226000182        0.4325859580        4.1781844061
  O         7.9026691257        0.0460389952        1.2520635063
  H         7.0443978929        0.2487849218        1.7291402946
  H         8.5907656883        0.1478176948        1.9190252380
  O         5.0406977254        3.5502053299       -0.0232257355
  H         5.5396868136        3.3689386717        0.8254881355
  H         5.5142017283        4.0087452774       -0.7322481321
  O         2.4406885482       -3.5740048344       11.8931656014
  H         2.6723371009       -3.1641651840       10.9934152001
  H         3.2603312381       -3.5209318185       12.4224423735
  O         3.4615714924       -4.3376900081        5.0515440618
  H         2.8819674404       -4.6587180817        4.3496859746
  H         3.9102955264       -5.0868168289        5.5440438314
  O        -2.0097529427       -2.5150950854       13.2982557322
  H        -1.0835439001       -2.9042419251       13.4096491013
  H        -2.5960727109       -3.1697942437       13.6688258559
  O         2.7399520149       -6.4478975125        2.9356121546
  H         3.3717044719       -7.0007132518        3.5149751910
  H         3.2800324835       -6.1580530243        2.1562915121
  O        -8.9401375608       -2.6613920796       -3.0608516920
  H        -8.4122887379       -3.4645287726       -2.9015452733
  H        -9.4582719950       -2.7425136965       -3.9416475885
  O         2.4257133406        2.6297474382       13.9609567829
  H         1.7592214800        3.2478831642       13.8116653932
  H         2.9944549077        2.7545104809       13.1595619653
  O        -2.0606564364       -0.7274848823       11.2083699311
  H        -2.1127051435       -1.1797451667       12.0707052327
  H        -2.4761041739        0.1201538072       11.4091459267
  O        -4.2790413802        5.5723892319        2.2695784892
  H        -4.2554582833        5.8327718283        1.3101239214
  H        -3.3517243683        5.3761168393        2.4340116682
  O        -0.1202970678        1.7316808001        8.3053347805
  H         0.3696577283        1.5501649610        9.0967148550
  H         0.6414375036        1.8920058301        7.6927027722
  O         3.8564502840        3.9566363154        4.2360047297
  H         4.4296730934        3.6443250933        3.4668321222
  H         4.4256873337        3.4893180857        4.9190487680
  O         1.9384954095       -0.0270244159        2.5256470284
  H         2.1534925395        0.9161683487        2.3982814115
  H         1.7485391126       -0.2579862144        1.5492349771
  O        -0.6765687926        1.1580165114        4.2966630066
  H        -1.0261559950        0.6551924447        3.5617193788
  H         0.1456975358        1.6038837647        3.9767543614
  O        -4.2378262116        5.7132026877       11.9879882947
  H        -3.7496519522        6.5722098267       11.6946039146
  H        -3.6100275085        5.0657056540       11.5629574117
  O        -7.0795487721        2.6505854107        5.9402236378
  H        -6.6541308761        2.1137723323        5.2505620862
  H        -7.5942773046        1.9351142404        6.3666215384
  O         4.5245009517       -0.1514272675       -0.7046013167
  H         5.3211466242       -0.8319228146       -0.6779894181
  H         4.9157498110        0.6496600938       -0.3136846586
  O        -5.0361109741       -3.0555577110        5.3404575279
  H        -5.1520872397       -3.6944846425        6.1165721123
  H        -4.4511493959       -3.4902975405        4.6793864816
  O        -8.0693251233       -0.4949258178        3.8906155058
  H        -7.6768643192       -1.3455902741        3.5165822603
  H        -8.8071510675       -0.3017835806        3.2178384990
  O        -2.5870375543        3.1745272292        4.7771379116
  H        -2.4779643951        3.2996616249        5.7301685713
  H        -1.9223848170        2.4617946087        4.5623190741
  O         0.4786645941        5.4561790799        1.4480690286
  H         1.2865983773        5.4467551688        2.0780879095
  H        -0.2239262110        5.1244754040        2.0219432294
  O        -1.6657009760       -2.9129243907        7.6043025966
  H        -2.4018198866       -3.0295278341        8.2580121970
  H        -0.9647252401       -2.4018894475        8.0642409826
  O        -4.0787941397       -2.1302232040        9.8517912666
  H        -3.4105686437       -1.5675690492       10.3575267773
  H        -4.8994594002       -2.2681964654       10.4475787534
  O       -11.6197986077       -4.6905101390        9.0319322533
  H       -11.0374961358       -4.4552846262        8.2450918752
  H       -11.7019723675       -3.7715043593        9.4478222019
  O         3.7987061043        4.3768892298        8.3507556352
  H         4.1394779164        3.6182043299        8.9264168338
  H         3.0379417012        4.7276827339        8.9147692654
  O        -2.6427433218        0.0917808229        7.3083499155
  H        -2.3366017238       -0.9053869670        7.3066697339
  H        -1.7568897385        0.5331380836        7.3615883218
  O         4.2392188583       -6.2778710088        0.6449677103
  H         4.6122868437       -7.2079184751        0.4665597033
  H         3.5931717317       -6.1087998793       -0.1119249137
  O       -11.1902154492       -7.3061187500       -3.2345939205
  H       -11.6322825685       -7.6030727552       -4.1350620354
  H       -11.4744019062       -6.3079298362       -3.2831485354
  O        -7.0474424632       -4.7721166578       -2.3410989722
  H        -6.9801957436       -5.7948503175       -2.2912210546
  H        -6.2578387512       -4.6178656363       -2.9261292277
  N        -4.6479788816        0.8755053201        8.9905262008
  H        -5.1357143815        1.6156567049        8.3972339581
  H        -3.7566886205        0.7370422107        8.5237487873
  H        -5.1175186913        0.0089882695        9.1596165584
  H        -4.4541799586        1.2466656024        9.9918703569
