     194
 CELL 12.4294 12.4294 12.4294 90.0 90.0 90.0 i =    63220, time =    31610.000, E =     -1097.1655271711
  O         7.8837652672        0.4017585680       10.8703260059
  H         8.0377006672       -0.5596733188       10.6406435962
  H         8.7493193411        0.7586193446       10.7507937721
  O        12.6836556201       -8.9890702536        9.4833213176
  H        11.9420958215       -8.3815795073        9.5222872255
  H        12.2653072697       -9.8635169922        9.5722812873
  O        10.4360421657      -10.5609447547       10.8882655410
  H        10.6531896367      -10.4655889808       11.8355063376
  H        11.1944870763      -11.0680955475       10.5509024832
  O         5.0317796195       -2.1729428474       12.6611698476
  H         4.8647791567       -2.9238011196       13.3161578916
  H         4.5270021183       -1.3715023069       13.0121040055
  O        -0.4671772200       -9.0730319361       13.3625901096
  H         0.0069981679       -9.4621938638       14.1548057723
  H         0.3438169640       -8.6937021363       12.8741545890
  O        13.4587517356       -4.6553006429       21.8881795378
  H        14.0483134513       -5.1238930391       21.2703742249
  H        13.7862796675       -3.7106794682       21.7783522045
  O        10.1626012368        0.5986511667        1.9995124629
  H         9.6175699214        1.3806284194        2.2195740969
  H        11.0442338210        0.9542440472        1.8813226079
  O        14.0971904192        4.1114405602       11.7343198809
  H        13.5186915370        3.9226435030       10.9062512647
  H        14.6680110552        4.9834897696       11.5791447593
  O         6.8775123601       -6.3055123376        2.2453377704
  H         6.8772405580       -7.2117870487        1.8578198157
  H         6.5006409303       -6.4500715353        3.1409453786
  O        10.4154099897       -1.1528986272        8.5249972790
  H        10.1092097169       -1.6077912530        9.3835399753
  H        10.8576632806       -1.9282730980        8.1487140887
  O        10.8217588020       -7.8016039590        3.6929475050
  H        11.4697830992       -7.2971932136        3.2155985192
  H        11.2221286864       -7.8789683542        4.5531082194
  O         6.5057198403        1.8775974869        9.0206253721
  H         6.2013477198        1.5152157380        8.0505089514
  H         6.8736708860        1.1242753799        9.5167861703
  O         3.2177384457       -0.2189536368       13.4209697606
  H         2.7183630052       -0.4074092131       14.2748890427
  H         3.4372782400        0.7754385265       13.4082388610
  O        10.8974755768       -6.4582495032        9.7196550664
  H        11.6664573946       -5.8239701701        9.6828428246
  H        10.6734915027       -6.4775300880       10.6706465019
  O         8.6421773896       -2.1824046195       10.4014814154
  H         8.1651377779       -2.9974657397       10.1340023891
  H         9.0840436202       -2.4744303163       11.2762235805
  O        13.9070946352       -1.2467087360       11.5365450380
  H        14.5368560030       -1.6307831952       10.8338939293
  H        14.5477061684       -0.9206438660       12.2073235869
  O        13.3202233358       -5.0800191618       13.3711162897
  H        12.6463288370       -5.6940893451       13.0908357048
  H        12.9116171492       -4.1772124240       13.3033381674
  O        12.7471580440        1.6618570806       15.7208908046
  H        13.5520474918        2.2322853564       15.8323009286
  H        12.2378452422        1.9331147638       16.5758705427
  O         9.9114394236        5.2866471693        6.6982548106
  H         9.1036121642        4.8932020401        6.2783069589
  H        10.0764281916        4.8159143096        7.5973767289
  O         6.3664395424      -10.9729920565       12.9305305573
  H         6.8982739136      -11.2468545174       12.1596502414
  H         5.4422294851      -10.8203606302       12.6464527573
  O        13.9330783168       -0.8070458593        2.7844951840
  H        14.2619932043       -1.3896303563        3.4952641342
  H        13.4622922188        0.0944873082        3.0985108056
  O         7.5215739182        5.3157872670       10.6922111249
  H         8.1085234489        4.6703951557       10.1470747280
  H         6.6225077051        4.9899311524       10.5754498498
  O        16.2593120153       -0.7978957587       19.4983275356
  H        17.0135445397       -1.1023050092       20.0896655164
  H        16.1894692617       -1.4435996373       18.8180492800
  O         4.3077293972       -2.8407331291        5.4017153375
  H         5.0073552201       -2.5182554221        4.8401471466
  H         4.8263188789       -3.3824452447        6.1035246255
  O         6.7562260880       -1.9107919860        4.2113105363
  H         7.0130314040       -2.8466783631        4.3540892180
  H         7.0354592079       -1.4810363940        5.0164376942
  O        15.3943372277       -5.9779542369       11.6237433949
  H        15.3382513751       -5.5550058881       10.7102188472
  H        14.5447901635       -5.6558757017       12.0242528016
  O        17.4912506170       -8.4669655318       10.3158029464
  H        16.9458236274       -8.7802362960       11.0651257031
  H        17.7873569296       -9.1916620164        9.6856780750
  O        11.6687435288       -3.1606932610       19.3798104240
  H        12.2788991509       -2.4163286290       18.9966113886
  H        12.3735068980       -3.6306273404       19.7925529086
  O         5.7635643858       -4.4400738156        7.0191283325
  H         5.3705275437       -5.2951898831        7.2504059933
  H         6.3841119900       -4.3685100634        7.8909262200
  O         8.7654274343       -9.5359642420       14.9979165931
  H         9.5342695967       -9.0149822009       15.3777402418
  H         8.3181265736       -9.0490658616       14.2669478800
  O         4.8873811331       -3.2944846225       10.2673558522
  H         5.3901033862       -4.0661940457       10.5207968893
  H         4.7133282206       -2.7347451234       11.0867521192
  O        10.6170521753       -1.0633998197       16.5843055950
  H        10.4272503297       -0.3518990058       15.8766785049
  H         9.8645205173       -0.9306121734       17.2246755179
  O         9.2349864235       -4.3684901906        7.1908616254
  H         9.3580097759       -5.4025377241        7.2256689613
  H        10.1525601510       -4.0270954505        7.0782866075
  O         8.2077029566       -1.8208611474        6.7845984705
  H         8.5460928658       -2.7191757973        6.7244253495
  H         8.8242971408       -1.3170092643        7.3766414941
  O        22.4745965683        1.2208835908        7.0868411237
  H        22.2744642428        1.8952558746        7.8147380097
  H        22.8534062636        0.4463181471        7.5608646999
  O        16.2855587575        3.3339885089        5.8120487312
  H        15.4981981072        3.4206947961        6.4307165212
  H        16.9123827485        2.5826597909        6.0184411548
  O        16.0558315020       -5.1445903994       16.5238320484
  H        16.3027126445       -4.9352943001       15.5647770288
  H        16.0546944881       -4.2023230729       16.9785237810
  O        16.5877310995       -6.5362223558        8.4242197363
  H        16.0350093602       -7.0231124795        7.7789271540
  H        16.9737605935       -7.2355875487        9.0067938652
  O        12.6812449927       -6.0599739055       18.6615618713
  H        11.7137224295       -6.3114745918       18.7244585034
  H        12.9386702961       -5.8793030606       17.7252439353
  O        14.2972400318       -8.0087484883        7.3993041337
  H        13.5572938552       -8.3986754325        7.9487894559
  H        13.8376549975       -7.4245912571        6.7399241403
  O         4.5568879299       -4.7642224080        1.4609955572
  H         5.4146326221       -5.2636035130        1.5680029062
  H         4.0589558773       -5.1937075514        0.7884353652
  O        12.7648325336       -1.0138127219       18.2261399091
  H        13.3334563228       -0.2952971737       18.5766560079
  H        12.1977684203       -0.6422912994       17.5252153571
  O        10.5637940423       -3.5950832623       16.1996751629
  H        10.7555191399       -3.8313110722       17.1315562067
  H        10.6188259986       -2.6050138976       16.2215294361
  O         7.5887258942        3.7757475184        6.0306226886
  H         7.0449255765        3.7476162326        6.8373207302
  H         7.0721504145        4.3304447187        5.4343667488
  O        12.3210667711       -2.7091829373       13.1652660922
  H        12.4462842887       -2.3130968339       14.0849033034
  H        12.9169035849       -2.1709402370       12.5821941585
  O        17.9708397270        1.3622369301        6.4496790314
  H        18.7292019374        1.3246855168        5.7250628074
  H        17.5492314389        0.4737991161        6.4819147983
  O        14.1019384859        1.0218187878        7.2786058233
  H        13.8480720894        1.0065938717        8.2422345880
  H        15.0331557405        0.6732155758        7.2885893056
  O        12.4899140278        0.4389116903        9.9374172932
  H        12.0517611835       -0.2661217062        9.4442388886
  H        13.1132093951       -0.0197137932       10.5773609819
  O         7.6234411445        1.0515547976       17.0829764227
  H         7.5537027968        1.8719941943       16.4713047871
  H         8.4006657187        1.3506537839       17.5978006842
  O         6.1120530520       -1.3542753693        8.5782959197
  H         6.8301458301       -1.5090710514        7.8908682117
  H         5.9963343360       -2.0860358152        9.2278627083
  O        19.6930823581       -4.4583506397        4.5164777257
  H        20.5329705407       -4.6500738953        4.9678400651
  H        19.1054101337       -4.5838358591        5.2206272301
  O         7.4766246195       -4.6190797736        9.4497732852
  H         7.5583904467       -5.4976246800        9.8763779167
  H         8.2656242577       -4.4817253750        8.8612888535
  O         2.4868768783       -2.4276509816        9.3251321931
  H         2.6881090000       -1.7132205714        8.7410457033
  H         3.3435308294       -2.9202636704        9.5818744245
  O         8.8950672165        3.2956710068        9.0115994867
  H         8.0472384610        2.8455126827        8.8703292608
  H         9.3877615145        2.9389382349        9.7625531972
  O        12.3309739725        2.5916421818        5.8554084481
  H        11.5217012337        2.1293598869        6.3067208705
  H        13.0851854473        2.1241988746        6.3376014411
  O        10.9248424223       -6.4548537720       12.5929635868
  H        10.2491524442       -6.0274366320       13.2191883260
  H        11.2665574365       -7.3084362889       13.0213110723
  O         9.1822619035       -5.1309816939       14.1834459850
  H         9.5214721680       -4.8208952727       15.0501123512
  H         8.3648607228       -5.6866791411       14.3730194626
  O         1.5535455796       -6.5843451000       15.7323400011
  H         1.2645452086       -6.1395766437       14.9053357375
  H         2.2289645031       -5.9830068132       16.1376992187
  O        15.9428586318        2.4449782809       13.0240841266
  H        15.1661492446        2.7358191792       12.4586491952
  H        15.7897003968        2.9872240301       13.8010371789
  O         9.6097928905       -2.7833495150       12.8099814181
  H         9.4589290946       -3.6953905211       13.2422749698
  H        10.6054263296       -2.6538994227       12.8165099055
  O        18.0269127908       -7.3165785660        4.8941493965
  H        17.3742936340       -8.0102072719        5.2123847660
  H        17.3791694158       -6.6620765773        4.5527110861
  O         2.7169215130       -9.3272841127        3.2746096253
  H         2.3817830096       -8.4283170627        3.4457210010
  H         3.2423247855       -9.4661512044        4.1581864176
  O         7.1578567819       -8.4099834552        0.6785259684
  H         6.7363648877       -9.3143265317        0.4878225949
  H         7.3924697128       -7.9790419904       -0.1566057314
  N         7.6333585680       -1.2500461103       14.0779227933
  H         7.8646686178       -0.3232652369       13.7968447188
  H         8.4753810520       -1.7731378188       13.6909440076
  H         6.8387435744       -1.5833449165       13.5413504549
  H         7.3527509170       -1.3046355406       15.0926713639
