     194
 CELL 12.4294 12.4294 12.4294 90.0 90.0 90.0 i =    59620, time =    29810.000, E =     -1097.1380251685
  O         5.7621806723        1.2222273708       11.9241985432
  H         5.6276359756        0.8060917003       11.0443774755
  H         6.6650498018        1.5495210559       11.8857213589
  O        11.0976020560       -8.7675318608        9.0584324472
  H        10.3142226075       -8.2877969392        9.4078532888
  H        10.9710197908       -9.6935152506        9.1365879835
  O         8.3007300605      -10.2167905364       10.7218450676
  H         8.7432773786       -9.7741800692       11.5008458994
  H         9.0807440710      -10.7718941340       10.3586660251
  O         3.7262421251       -1.9676774979       12.1703874184
  H         3.3635349225       -2.8477309120       12.4590021357
  H         2.9718563939       -1.2746896284       12.3466231542
  O        -2.2344733340       -9.2671743290       12.8871854419
  H        -2.0435484434       -9.8434264742       13.6465750628
  H        -1.3314170525       -9.0173128060       12.4717029337
  O        10.3425353990       -4.5091471510       21.5350649060
  H        10.4844395455       -4.9093572732       20.5974191826
  H        11.0885537150       -4.8628624053       22.0407121500
  O         8.8049895078        0.3332496326        2.4789491519
  H         8.1813692562        0.9940517451        2.3166619264
  H         9.1647111397        0.0068843955        1.6177704888
  O        12.7037442860        3.8083197429       11.4619094277
  H        12.2362641683        3.6370518996       10.6197573639
  H        12.9738642443        4.7376183960       11.5568444423
  O         4.8272840271       -5.7179126502        2.1808514168
  H         5.1469994302       -6.5679630401        1.7732301797
  H         4.4085929660       -5.9474435419        3.0890564213
  O         9.2045473645       -1.9236149724        8.8446080818
  H         8.2596624908       -1.9402145569        9.2320313819
  H         9.6449028329       -2.7411693180        9.1074203265
  O         9.6904314010       -8.2902748583        3.2353492122
  H        10.2329100692       -7.4822789072        3.0282616537
  H        10.0407520511       -8.7805748067        4.0668619365
  O         5.0819508613        2.4157626182        8.0808038360
  H         4.6212659432        2.3673000785        7.2314928973
  H         5.2897553315        1.4718200696        8.3613094813
  O         1.7137649884       -0.4798260050       13.0504112586
  H         1.3629513997       -0.8527883879       13.9321016290
  H         1.5905768542        0.5905538803       13.1963719472
  O         8.9250451010       -7.0480129677        9.9913854202
  H         9.2250897519       -6.1027683672        9.8957233616
  H         9.0148449383       -7.1140004033       10.9852145586
  O         6.6922960734       -2.2065593069       10.0346503657
  H         5.9602764232       -2.8595179566        9.7495023840
  H         6.9093563326       -2.5018984508       10.9597037016
  O        11.8867223794       -0.9579584360       11.3511250773
  H        12.2062902503       -1.6512369853       10.7049282825
  H        12.7601064646       -0.8122101320       11.9122718051
  O        11.1369430086       -4.7076139223       12.2837983759
  H        10.4877994626       -5.4291770723       12.3837216588
  H        10.7708762477       -3.9289024453       12.7736026712
  O        11.4106050774        1.7774110804       14.8821820662
  H        12.1158788976        2.3238636483       15.3168283242
  H        10.6043207703        1.7651852846       15.5387718762
  O         8.5410553589        5.0325532578        6.8801501302
  H         8.4462129193        4.4854566429        6.1284977717
  H         8.3197854687        4.4715179242        7.6393093767
  O         3.9272297862       -9.3549475244       12.0257737485
  H         4.6115372064      -10.0501940043       11.9709845702
  H         3.1319453372       -9.7048990603       12.4961371154
  O        12.4107124484       -0.9221256679        2.5499723573
  H        12.2652900577       -1.2199003210        3.4764157600
  H        11.9383029274       -0.0245424763        2.5947321667
  O         5.9667862810        5.8587629145       10.4923387330
  H         6.7355656048        5.5438060144        9.9158742415
  H         5.2041586611        5.2967816820       10.2359565254
  O        14.4955666696       -0.2252145611       19.0668209382
  H        14.5489033136       -0.6746055999       20.0070728400
  H        14.7017751131       -0.9701109786       18.4483395984
  O         2.5717920077       -2.1410571279        4.8834575439
  H         3.2048572971       -1.6856815892        4.3688165392
  H         3.0392062688       -2.6584597372        5.6142751423
  O         5.1302918041       -1.0513094570        4.1191133952
  H         5.5089398656       -1.7573580143        4.5997656303
  H         5.6926458020       -0.2175132176        4.4207911798
  O        13.7744559229       -5.5554313372       11.5278018173
  H        13.9057780589       -5.5493083575       10.5272396485
  H        12.9474337657       -5.1401970244       11.7826254628
  O        16.0693838788       -7.9649808451        9.8278475231
  H        15.9038888688       -8.4782826029       10.6735690570
  H        16.4986851888       -8.6309226733        9.2423494209
  O        12.8041467249       -3.9661781548       19.2562443749
  H        12.6107810464       -3.2408628766       18.6324728707
  H        12.1444820923       -4.6835841782       19.2209573589
  O         3.4877676378       -4.1235379245        6.4229319493
  H         3.4729457315       -4.8501758040        5.7103457523
  H         2.7911368287       -4.3546689771        7.0779089560
  O         7.4135195004       -9.5846541481       14.6223189036
  H         8.2120717525       -9.0128951892       14.7435076819
  H         6.7536802017       -9.1271766025       13.9904649688
  O         3.0247310339       -2.2366824976        9.5629703037
  H         3.5258382556       -2.9547916675        9.1200778625
  H         3.2776324295       -2.3354676062       10.5562149502
  O         9.4882241035       -2.0238227923       16.7370093131
  H         9.2983846688       -1.2969981694       16.0378565322
  H         8.7988766452       -1.7337986626       17.4051912706
  O         7.4245816270       -4.7785718348        7.5523924415
  H         7.4564518754       -5.6986350372        7.2079326579
  H         8.1751180768       -4.6872025039        8.2324286599
  O         7.8615367929       -1.7083163742        6.6751272052
  H         7.3153209892       -2.4502777333        6.4262883566
  H         8.6030453054       -2.0297968389        7.3118260191
  O        20.6659151345        1.1046343218        6.2339548935
  H        20.3336542607        1.7200713820        6.9517031223
  H        20.5286728799        0.1998111810        6.5373737760
  O        14.5292409841        4.4048564229        5.1476612489
  H        13.9640232264        4.7269972293        5.8985770843
  H        15.2140809897        3.7266026131        5.5116266237
  O        13.8069262752       -4.1085137522       15.6619808621
  H        14.1476867482       -3.7283574165       14.8089782225
  H        14.1911313319       -3.5486204720       16.3817021988
  O        14.2665986525       -5.9211800756        8.9113195242
  H        13.5870086601       -6.3034433467        8.2958644186
  H        14.8493547366       -6.6180445477        9.1392797729
  O        10.5493392353       -5.5270272705       18.9247461410
  H         9.9375423710       -6.3679037124       18.9733172946
  H        10.4549203928       -5.3311180949       17.9194036697
  O        12.6015632884       -7.2804055624        7.1282626051
  H        12.1256133854       -8.1396562758        7.3624632282
  H        11.9063654996       -6.8897235293        6.5545630073
  O         2.8626591323       -4.1878009785        0.8574910420
  H         3.6650332305       -4.6984411717        1.2595302746
  H         2.4181051710       -4.8148517315        0.1896951726
  O        11.9879737895       -1.4286096430       17.9089873770
  H        12.2147530187       -0.7230923519       18.5629376577
  H        11.0403036535       -1.3950815522       17.5944377185
  O         9.5758109659       -5.0210339544       16.4288238140
  H        10.3257760338       -5.2098883593       15.7568503558
  H         9.4370893997       -4.0056481421       16.5402942165
  O         6.6258150207        6.2458437980        4.8702172003
  H         5.8895113969        5.9042940688        4.3157860448
  H         7.4886693238        6.0245529745        4.4051119019
  O        10.3664881661       -2.1410810476       13.2015064858
  H        10.9179586918       -1.9881418377       13.9908107254
  H        10.9696187512       -1.8060628282       12.4665607299
  O        15.9929786549        2.2268409228        5.7639763514
  H        16.6982544459        1.8319852208        5.1783430478
  H        15.3607523624        1.4895064610        5.9390716735
  O        11.9616841153        1.5025691301        7.4535840403
  H        11.4534468806        0.7587097422        7.8530010077
  H        12.7936087455        1.0585144144        7.2975570805
  O        10.1839934346        0.6289038416        9.6308210918
  H         9.7439299131       -0.2215531051        9.3305512515
  H        10.7643251015        0.3992262135       10.3737509997
  O         6.0903190413        1.5737690499       17.1506051289
  H         6.4362385799        2.1471050510       16.4382881225
  H         6.8698561077        1.2973991980       17.6817944862
  O         5.0478797776        0.0092654264        9.5598513144
  H         5.6664794975       -0.8010891312        9.4542434149
  H         4.1147013290       -0.3744141247        9.7016172425
  O        18.3287321391       -3.3427781770        5.6569066368
  H        18.5355829585       -4.2084888545        5.3288157081
  H        17.6299778131       -3.5652745003        6.2926798199
  O         5.1829929576       -4.2431388851        8.9316522903
  H         5.2854322390       -4.9640870317        9.6562147083
  H         5.9060251971       -4.4261360292        8.2983040604
  O         0.5581546051       -2.7254856635        9.3217321326
  H         0.4110801729       -3.1984508868        8.4565572225
  H         1.4919173820       -2.6252156743        9.3611388481
  O         7.7137348218        2.8590806290        8.1445484632
  H         6.6915324243        2.8145212569        8.1592159120
  H         7.9276588857        2.5951381897        9.0591684420
  O        10.2876902518        2.2796776594        5.0870944777
  H         9.6310319202        1.5712473873        5.3280766320
  H        11.1385646283        2.0435227674        5.5421226105
  O         9.1644626673       -6.7140443494       12.9312208278
  H         8.5015793639       -6.2916820897       13.4764732430
  H         9.4022558448       -7.6440611202       13.1270113394
  O         7.3648223193       -4.7071936260       14.3805409343
  H         7.8600173335       -4.6269706310       15.2175104903
  H         6.4813443656       -4.9371731730       14.7187421913
  O        -0.4902067897       -6.0554664231       15.0202571965
  H        -0.6198116998       -5.7154744153       14.1047573898
  H         0.2466423696       -5.4851281846       15.4163749957
  O        13.8261282839        2.1191436127       13.1936640429
  H        13.2771047684        2.4127126745       12.4337495623
  H        13.6833492158        2.7878393693       13.9648667819
  O         7.8024857486       -2.3430159179       12.8977766201
  H         7.6120622427       -3.2295274792       13.2551785297
  H         8.7709042311       -2.3745954942       12.7931125198
  O        15.7144827064       -5.8151048005        4.2436222453
  H        15.3463468202       -6.6701153840        4.5593518950
  H        14.9189084305       -5.3004665870        3.8228572014
  O         0.8170410148       -8.7604720645        2.8736510490
  H         0.0895930714       -8.1447359096        2.6569522690
  H         1.1171874353       -8.4445922825        3.7195701426
  O         5.9435358083       -7.9231667009        0.5677665836
  H         5.0373229130       -8.2770913232        0.3082467579
  H         6.1678066385       -7.3347163803       -0.1825586662
  N         5.6755486342       -0.8889573517       13.8544906716
  H         5.7173931235        0.0364671681       13.4129941666
  H         6.6478182879       -1.3541910988       13.7715266150
  H         5.0500661657       -1.5959175528       13.2798000865
  H         5.4575024209       -0.8894881067       14.8575370844
