     194
 CELL 12.4294 12.4294 12.4294 90.0 90.0 90.0 i =    28020, time =    14010.000, E =     -1097.1193403865
  O        -9.4073261006        3.5433771112        6.4505195711
  H        -8.9793443722        2.6596669174        6.4111923059
  H        -8.8334055309        4.0819970024        5.8034255492
  O         1.0602575033       -8.4484350951        4.5809442415
  H         1.0727280164       -7.5432383848        4.1987638986
  H         1.8574427387       -8.5238793749        5.1388929501
  O        -4.7124152165       -7.6232750478        6.9715346763
  H        -5.0307687605       -6.6784718843        6.8790710392
  H        -3.7862977462       -7.5798220695        6.6742145636
  O       -11.8503837425        1.0273071810        6.5696543821
  H       -11.8203769864        0.1028048408        6.8570211444
  H       -10.9903081107        1.3725609128        6.8585350041
  O       -17.7417834472       -4.5487739734        7.3037363979
  H       -18.5939153765       -4.5036112451        7.9110695593
  H       -17.6606132266       -3.7657382171        6.7237370192
  O        -4.0762116054       -1.9140910453       13.2899074171
  H        -3.2445455423       -1.3592026160       13.4157084975
  H        -3.9037802615       -2.3973525542       12.4607114511
  O        -5.0043632077        4.5544674317       -2.5046036948
  H        -4.2489927054        4.3398503288       -1.8637286988
  H        -4.5698882618        4.7924564580       -3.3309363801
  O        -2.0811714060        4.8186201468        6.0038302830
  H        -1.3907132652        4.5804314074        6.7662285469
  H        -2.0240660069        5.7746018875        5.8731340865
  O       -11.4384776263       -3.8877952360       -1.3685394876
  H       -11.3836736629       -4.8408175254       -1.4939236981
  H       -11.0361340346       -3.6160436606       -0.5407719604
  O        -4.4544740231        1.4624931444        0.5844624752
  H        -5.3122943721        0.9387846085        0.6573740408
  H        -3.7650506037        0.9584669765        1.0825126837
  O        -3.1862319504       -3.6211013384       -1.4630195338
  H        -2.5421057269       -3.0525705870       -1.9017214620
  H        -2.6444230282       -3.9852947717       -0.7447080148
  O        -8.1392301823        4.7107169796        4.5335826361
  H        -8.6399150060        4.7510802104        3.6986174430
  H        -7.2090336415        4.2663041057        4.3165052906
  O       -12.5110040030        4.1098971901        7.9009002693
  H       -13.0379938404        3.5550448591        8.4236593623
  H       -12.1854498920        3.4512883347        7.2642908706
  O        -4.9412882130       -3.5151471900        2.7761505072
  H        -4.2861414841       -2.9811315302        2.1441049355
  H        -4.7687853341       -3.2117773767        3.6878290592
  O        -6.0087922662       -0.2379930701        2.6608320089
  H        -5.5531607185       -0.9931857664        2.1888014477
  H        -5.2910652657        0.0622444250        3.2279565280
  O         0.3417384607        1.0897991958        3.9987894759
  H         0.8560991402        1.6751633956        3.4504259323
  H         0.4948951620        1.1891303162        5.0357015235
  O        -2.4230439290        0.1552717582        1.7534143217
  H        -2.1760654230       -0.3000326835        2.5680065103
  H        -1.6631052195        0.6149560158        1.3988693995
  O        -2.3832434696        6.4381705370        8.9453119232
  H        -2.3957904464        6.8056816900        8.0717468927
  H        -2.7378246934        7.2366606438        9.3811615310
  O        -4.6359626290        6.2196181724        1.4554386595
  H        -4.3640582718        5.4224253740        1.8800372372
  H        -4.6890769316        6.9589886107        2.1558575819
  O        -9.7387013522       -7.7221904489        9.0125837191
  H        -8.7578627105       -7.5020213101        9.0848022092
  H        -9.7331815764       -8.2747814381        8.1799019374
  O        -2.1327844301        2.0388602075       -3.3064727595
  H        -1.3750697337        1.5139043181       -2.9448141440
  H        -2.5127513526        2.4206998821       -2.4767286897
  O        -7.2420310598        7.3402911285        4.9028834334
  H        -6.6094662644        7.6843601158        5.6008050933
  H        -7.4593487824        6.3753744405        4.9573192341
  O         0.0692919673        0.6548672632       10.2645488273
  H        -0.2368787399       -0.2617129184       10.0291531262
  H         0.8299598945        0.7977346812        9.6477781367
  O        -9.8187733356       -2.1431555771       -3.0436813174
  H        -9.4248175601       -1.4027965114       -2.5143167369
  H       -10.3445116018       -2.6806833045       -2.4098432563
  O        -8.9422368635        4.3396767599        1.3300912454
  H        -8.4146609025        3.5736334973        1.7337909083
  H        -8.3321105421        5.0719367083        1.0502010305
  O        -1.4989139923       -1.2111114893        4.1945767023
  H        -1.1696858073       -2.0840100314        3.8654231484
  H        -0.7056247511       -0.6479319197        4.0878233905
  O         1.2778500461       -5.6904406857        3.8820924524
  H         1.2681249243       -5.5722520396        4.8495636003
  H         2.1101683150       -5.3450668770        3.5001404172
  O        -3.8123650985       -0.0823305966        7.9127666727
  H        -4.6694020604       -0.2387609914        8.4057395414
  H        -3.2610015757        0.4938354392        8.5023051188
  O       -11.0540011294       -2.8550889997        1.0477914819
  H       -11.9669595486       -3.0539922856        1.3904392427
  H       -10.4571963333       -3.2763523193        1.7475001405
  O        -7.5571408290       -3.7626534494        8.9893475491
  H        -7.2056793056       -3.4355300835        9.8365383689
  H        -8.4433552990       -3.3441715406        8.9558362425
  O        -9.6886474875       -1.4135970720        4.5548707448
  H       -10.2299109863       -0.8958152245        3.9386864011
  H        -9.4426056579       -2.2381930625        4.0876790313
  O        -6.5718068676        2.4544300797        9.5239876092
  H        -5.8960671972        3.1346270869        9.7865777555
  H        -7.4036731711        2.6363355066       10.1764768349
  O        -7.1493908700       -3.3619998830        1.1622126482
  H        -7.1293010254       -4.3541664453        0.9956550698
  H        -6.4747522955       -3.2284737125        1.8414272052
  O        -8.3613405370        1.9220456450        2.6154972131
  H        -8.8741283511        1.4003483005        2.0008656734
  H        -7.4710411086        1.4502903919        2.5990582145
  O         3.8744146471       -0.2235371180       -1.1078460057
  H         3.1983139621       -0.1496655623       -0.3882195044
  H         4.2536381370       -1.0629218004       -0.8249483600
  O         3.5641133734        3.0529442056       -1.4365179469
  H         3.6986749406        3.4404814365       -0.5271824563
  H         3.1099236964        3.7182574282       -2.0643324882
  O        -0.9187889473       -2.1967726365        9.7240808817
  H        -0.5932537751       -2.1438092816        8.7654962758
  H        -0.2053013245       -2.6473391993       10.2273789859
  O        -0.6502699595       -3.6410877798        2.8241034235
  H        -1.1984933690       -4.0880288057        2.1012149807
  H         0.0168573004       -4.3272518936        3.1503974159
  O        -5.8931835333       -2.4984896567       11.0605459669
  H        -4.9376017470       -2.6760711281       11.0256208766
  H        -6.1639079237       -2.7034562222       12.0054093976
  O        -0.9645951676       -7.4457852856        0.0427538060
  H        -0.2462112434       -7.6686320295        0.6887989852
  H        -0.4404864921       -7.4722108255       -0.8206216754
  O       -11.5525113484       -1.5854133832       -4.9963685378
  H       -10.8913985303       -1.9329439449       -4.3748831631
  H       -11.0476020660       -1.6845929675       -5.9005849530
  O        -3.1802219531        3.2618586603       11.6373071162
  H        -2.7269967444        3.6989659778       12.4057991831
  H        -3.3805282615        2.3248865045       11.9382226526
  O        -6.2764297340       -0.2539333671        9.0879923687
  H        -6.2868270243       -0.8084299474        9.8595451539
  H        -6.5040082226        0.6710165088        9.3891047236
  O        -7.0159356939        6.3995319906        0.4772272749
  H        -7.2458066454        6.3202767751       -0.5192421933
  H        -6.0520134707        6.0837188527        0.6845259787
  O        -1.9998746546        2.6169972551        3.8921962012
  H        -1.8451701743        3.1029894480        4.7464356865
  H        -1.2307082387        2.0048254752        3.9727385898
  O         0.7036808769        3.7485375400        1.7796541653
  H         1.6807095550        3.9535502164        1.7513424989
  H         0.4442649978        3.9223116490        2.6910307820
  O        -0.1001047364        1.1983708947        0.7695938654
  H         0.1955074960        2.0952942444        1.0876394966
  H         0.0859130388        1.1253324023       -0.1899907034
  O        -3.8955469409        3.6783261167        2.2646904541
  H        -4.2935659012        2.9831265345        1.7501027938
  H        -3.1589477600        3.2393874583        2.7988847123
  O        -7.2315586086        5.9676735775       10.0833757253
  H        -7.3438157424        6.9464911504        9.9087699575
  H        -6.2892586711        5.7618449904       10.3772799253
  O        -8.5775078606        1.0455328332        5.2800909142
  H        -8.8498485134        1.3479549906        4.3786204268
  H        -8.7109756892        0.0836177808        5.3108361861
  O         2.5919075594        1.0260413414       -3.8118739186
  H         3.1653732490        0.4375210942       -4.2836694838
  H         3.2151516876        1.5709016191       -3.2692287475
  O        -8.9861153576       -4.1090485076        2.9652253302
  H        -8.2774889187       -4.4058218114        3.6375685058
  H        -8.4285465563       -3.7288381884        2.2543537976
  O        -9.9737520060        0.0868680257        1.3733968352
  H        -9.9019653728       -0.8591689301        1.5653363454
  H       -10.9111999371        0.1938792285        1.1539422572
  O        -5.6860427492        3.7747213402        4.3934989069
  H        -5.3642485988        4.4195310247        5.0773038871
  H        -4.9989527957        3.7835554823        3.6216064242
  O        -2.1566486580        7.4071361790        0.6901004221
  H        -1.6568076093        6.5542021655        0.5477504951
  H        -3.1202454378        7.2094515031        0.8891948277
  O        -5.0682382098       -2.4185998629        5.4562759679
  H        -5.7111656886       -1.6808666851        5.6558198775
  H        -4.2720622668       -2.1679578793        6.0562082132
  O        -7.6388631192       -1.3117359236        6.6119905603
  H        -7.1123129233       -1.1964731139        7.4188622399
  H        -8.3472104315       -1.9742231802        6.7218580411
  O       -14.9119409332       -2.0360078469        6.6197764352
  H       -14.4547177704       -1.7228134730        5.8261470979
  H       -15.3003220582       -1.2537131683        7.1237189951
  O         0.7937313497        6.8014874778        6.8163924252
  H         1.1402755485        6.1779521519        7.4695912962
  H        -0.1689395584        7.0668325380        7.0098586059
  O        -4.0796089778        0.6513139530        4.6588718882
  H        -3.3656831171        0.0183131139        4.5877291988
  H        -3.5897196362        1.5104608473        4.5777098241
  O         0.4631715271       -6.5578441987       -2.1912888168
  H         1.1393154826       -6.9941560594       -2.8229906989
  H        -0.2532801441       -6.3836917394       -2.8091990561
  O       -14.2651728636       -4.7300577741       -6.3079680698
  H       -13.9993541171       -4.6256704760       -7.2533376777
  H       -14.3764504030       -3.7472912700       -6.0801764404
  O        -9.3348062921       -3.7046314430       -5.8551397775
  H       -10.1833360812       -4.0822449554       -5.6028191280
  H        -8.8553206664       -4.4085154724       -6.3282139559
  N        -6.0781627040        1.9447464493        6.6586242335
  H        -5.6614278280        2.7652124499        6.1348632956
  H        -5.3156460956        1.2432115195        6.8194181918
  H        -6.9106769486        1.5906969464        6.1094507370
  H        -6.3738352542        2.2857139886        7.5988560694
