     194
 CELL 12.4294 12.4294 12.4294 90.0 90.0 90.0 i =   103620, time =    51810.000, E =     -1097.1558398703
  O        22.1404861008       -2.7302929339       16.9557617759
  H        22.6684513291       -2.6715567328       17.8064127690
  H        22.3289365650       -1.9076071851       16.4655987926
  O        26.5439281414      -11.8640809547       10.7681478552
  H        27.3887984338      -11.9474531930       11.2345406230
  H        26.3149556100      -12.5920208491       10.1470175226
  O        25.3934010190      -12.9117622570       18.1422541647
  H        26.1248183826      -12.4739998425       17.5917627103
  H        25.1345162903      -13.7335297224       17.6738409798
  O        21.4882271767       -4.7347771770       14.2947161467
  H        20.6379037462       -4.3663909266       14.6478390952
  H        21.8149805931       -4.1413092279       13.5526286437
  O        14.9748938945      -11.6827217710       16.5857862539
  H        15.6534221002      -11.8543169410       17.2981632028
  H        15.1659150828      -12.2793203544       15.8193309335
  O        31.4453257580       -9.0487345818       25.2417130730
  H        31.6840379593       -8.1503706306       24.9573471545
  H        31.2741081705       -9.5340297651       24.3666258929
  O        23.8815702311        1.4267993287        7.1581890637
  H        23.6811171168        2.3719601059        6.7202312636
  H        24.3001111340        0.9156506805        6.4495881365
  O        28.1311388902       -0.9555556134       14.6609331936
  H        28.8149383762       -1.3455285959       15.3338416758
  H        27.3254602381       -1.5282485240       14.4021785535
  O        22.5180763814       -6.2479150587        7.6464929722
  H        21.6528239659       -5.8750835083        7.2868885356
  H        22.4798724954       -6.1515111160        8.6562421760
  O        25.8802115998       -5.4224644799       13.5402612001
  H        26.4963041050       -6.2177508483       13.3995836217
  H        26.4020408091       -4.6057939922       13.7337474870
  O        25.1360155561       -7.3509644163        9.2044265590
  H        24.4309660718       -7.2757781302        8.4491597963
  H        25.0940021433       -8.3113447599        9.3801820208
  O        20.3742763295       -2.4482287657       10.0974872069
  H        19.5725352625       -1.9414203090       10.3651346275
  H        21.0660820440       -2.3715688606       10.8386990711
  O        17.4075875017       -2.1575181994       16.6189708062
  H        17.2528587539       -2.1289330699       17.5285987679
  H        18.1188526656       -1.4826412165       16.4143588185
  O        28.9866333245      -11.9967565040       12.4377291582
  H        29.3959480374      -11.1362392328       12.6796461567
  H        28.5368825313      -12.3222310109       13.2986962363
  O        24.1144080765       -5.3061949131       15.4803105155
  H        24.7622636530       -5.3036578052       14.6754810523
  H        23.2075013787       -5.0987015864       15.1063219625
  O        31.5778132262       -2.8754417737       13.5043423349
  H        31.6560112127       -2.9746967530       14.4874942938
  H        30.7755222561       -3.2149442642       13.1540667174
  O        31.9333365417       -6.4903629208       17.1933959392
  H        31.6659802070       -6.0408108613       16.3745035233
  H        32.2723374303       -5.8193004498       17.9120251072
  O        29.3489827979        1.0298158959       18.8116926576
  H        28.9966919831        1.4059195602       19.6595262723
  H        29.5966985547        0.0714739986       19.0603789811
  O        27.1312874956        5.8624682725       10.5577631222
  H        26.2394914017        5.6006727133       10.1315168024
  H        27.1236100301        5.3333986500       11.3494200592
  O        18.9700295418      -12.2354410493       16.4395184216
  H        19.0592515817      -11.8154545546       17.3148955595
  H        18.5782949631      -11.5518390781       15.8149752028
  O        30.0543812398       -1.6240965782        7.2115859831
  H        29.6849831002       -1.9458261275        8.0977810666
  H        31.0098155907       -1.7308512662        7.2081206739
  O        23.9308058117        1.7051645377       14.6847115541
  H        23.5085732343        2.1490594398       13.8844235299
  H        24.3972587834        0.8950338286       14.4136563302
  O        31.0882707046       -4.7368349131       22.8904715483
  H        31.6339394040       -3.9609008367       22.6620159246
  H        31.1091414654       -5.4075608770       22.1394276147
  O        23.3729625668       -3.7431654054        7.1696282083
  H        23.2533048865       -4.6472121406        7.5561475214
  H        24.3749723414       -3.6859125647        7.1609200163
  O        23.7025820120       -2.0185773769        9.5242987390
  H        23.0436376635       -1.3548141637        9.7919512599
  H        23.3633297649       -2.5548258121        8.7919981533
  O        29.2045810624       -7.6906282157       16.6984967119
  H        30.0452461834       -7.4114842889       17.1313694282
  H        29.2261135331       -7.1602204498       15.8339669646
  O        32.9658208533      -13.0129172275       12.6932958649
  H        33.2647510657      -12.5335745629       13.5145445899
  H        32.3139479000      -13.7478957981       12.9352008677
  O        31.2482451543       -6.5338343645       21.0146622275
  H        31.7234597857       -7.3646169868       21.1646817497
  H        30.3430855184       -6.8705756187       20.7274271968
  O        22.0050965672       -6.7589386210       10.2713310223
  H        21.6135565804       -7.6272912069        9.9439738623
  H        21.3439130952       -6.4696293194       10.9411514788
  O        20.5886255438       -8.9330034505       17.1882413819
  H        20.8837564658       -8.9710513283       16.2881886742
  H        20.2198080877       -8.0113032194       17.2019180164
  O        19.7518212671       -6.3817064086       12.4873754063
  H        19.2030646030       -5.7117871561       11.9876614196
  H        20.3119075692       -5.9022668869       13.0776175043
  O        25.6029427647       -4.1932309845       21.4022409399
  H        25.2591553450       -4.7079731012       22.1455758920
  H        25.5865923397       -3.2798973435       21.8201334768
  O        27.4022637383       -7.6830403128       13.3787560947
  H        28.2459787062       -7.3365080101       13.7729153021
  H        27.2274488430       -8.3080441716       14.1055959197
  O        24.3389331432       -4.9842338738       11.0913001050
  H        23.6865246290       -5.7122913187       10.8737707664
  H        24.7754376929       -5.2577855677       11.9034468100
  O        36.6901117936       -0.7750369320       12.4587851189
  H        37.6265858012       -0.4294033664       12.1399960453
  H        36.0432041141       -0.3645762946       11.8049547415
  O        31.9863717796        1.9531044514        6.7605240353
  H        31.0100439673        1.8175348846        6.7497271186
  H        32.3354419814        2.5705164298        6.0791042900
  O        32.8503290525       -4.7783785084       19.2411733257
  H        32.1711067097       -5.1659082254       19.9139142833
  H        32.9003988563       -3.8086331474       19.4262273224
  O        30.8232855663      -10.3351442134       10.4008809966
  H        29.8908422932      -10.3576778162       10.0342581030
  H        31.0852799479      -11.2717231604       10.3042995034
  O        28.6535194383       -7.6094739495       20.8587131163
  H        28.2034966462       -7.1459251502       21.6088595871
  H        28.1262335672       -7.3894193801       20.0333894468
  O        28.4505613173      -10.2648681965        8.9381572691
  H        27.7546256289      -10.6837888505        9.4561911926
  H        28.3065791812       -9.2540872482        8.9271327700
  O        19.7586682375       -3.7407307136        3.6464135426
  H        18.9540003018       -3.4013028080        4.0755658663
  H        20.5458485600       -3.5824645246        4.2083699572
  O        28.7876491194       -3.8648157283       25.9091681401
  H        28.5020874854       -2.9879470660       26.0918550919
  H        28.6478704076       -3.9181022590       24.8511125280
  O        28.3406358286       -2.2952709206       21.5536637872
  H        28.2349905292       -2.9086086335       22.3634999195
  H        27.5127799497       -1.9228717280       21.2840053929
  O        21.4721225692        0.2749934781        7.8442404167
  H        22.3098823270        0.6962806607        7.5354199214
  H        20.7421050887        0.8670775776        7.4231937254
  O        25.9637432088       -1.1715413629       20.9051385497
  H        26.0541513328       -0.9305141197       19.9109876116
  H        24.9851821278       -1.3973492871       21.0449377561
  O        32.9390090571       -2.2913095591        7.5171654512
  H        33.4409499535       -1.5133561204        7.2241167351
  H        32.8632015799       -2.2213260535        8.5087824578
  O        28.4353946769       -4.2529671343       10.8473995004
  H        27.8628593489       -5.0667063147       10.7065605770
  H        29.3943732097       -4.4194089357       10.5674472918
  O        25.4166857910       -3.0029614622       16.7172224744
  H        24.8322076720       -3.8116275389       16.5583307374
  H        26.1824822619       -3.3304687498       17.2409810124
  O        21.5365967049       -0.0287452956       15.3083981212
  H        20.9346249415        0.1543283737       16.0851737803
  H        22.1460244693        0.6910457417       15.4303524526
  O        22.3425277540       -2.8429242536       12.1119235651
  H        23.0694291937       -3.2730271913       11.5779456904
  H        22.7115070964       -2.0009922330       12.3902159902
  O        35.4338729824       -9.6377761720       12.2037884944
  H        36.2406107172       -9.5610622915       11.6693184995
  H        35.0764064316      -10.4791226145       11.8116572131
  O        22.1221385821      -12.2032583163       10.7103774706
  H        21.7284437605      -11.9209183844        9.8269407901
  H        21.3873502497      -12.6130623610       11.2564929094
  O        17.3432841670       -6.3477295872       14.2378023394
  H        18.0375992330       -6.5291081566       13.5805722951
  H        17.2201526389       -5.4136965364       14.0894007929
  O        25.9919013136       -2.5409729190       14.0220435255
  H        25.3246170842       -2.2643830803       13.3775993240
  H        25.5032859181       -2.6103290898       14.8665903306
  O        24.7566233140        2.4200218165        9.6857056653
  H        24.4848031344        1.9930100544        8.8008531932
  H        25.2900904275        1.7127219570       10.1196853069
  O        26.3498212030       -9.3091338791       15.3836257127
  H        25.6703474523       -9.8500753970       14.9105551152
  H        26.8948530163      -10.0187645377       15.7864883476
  O        22.8908164737       -8.5502847875       18.6963500954
  H        22.6487426207       -7.7154951270       19.1522533939
  H        22.0374107713       -8.8833455665       18.3884078905
  O        14.7406876667       -6.6534620307       18.5714210534
  H        14.7697040811       -5.6476710444       18.6702474771
  H        15.4490599915       -6.9237855046       17.9107924244
  O        30.5998879454       -0.8659664732       10.5208326472
  H        29.7559870282       -1.0498406322       10.0602723269
  H        30.2769724139       -0.6278247367       11.4312843872
  O        27.1337847667       -4.1268047836       19.0241520040
  H        26.5531966674       -4.3709588952       19.7555787685
  H        27.7688902597       -3.5934890393       19.4723484648
  O        32.5273272406       -8.7695785469        8.8537587556
  H        32.4227240721       -9.3330034658        8.0204039651
  H        31.9445101895       -9.3040980605        9.4993090918
  O        17.3753446913      -10.1445458272        2.4933885251
  H        17.9795621318       -9.7134404745        1.8483106281
  H        17.3399828645       -9.4734917215        3.2490228612
  O        21.0334010898       -9.3245840550        2.1565642096
  H        21.6853025008       -8.6702300732        1.7460493897
  H        20.5577769940       -9.5315944058        1.2857039270
  N        24.8400727587       -7.4616795358       17.0673537685
  H        25.5233817807       -7.0941830809       17.8285165133
  H        25.4087120173       -8.1862551139       16.4675967781
  H        24.4420962186       -6.7521739050       16.3366326849
  H        24.0643133311       -7.9407415778       17.5710451353
