     194
 CELL 12.4294 12.4294 12.4294 90.0 90.0 90.0 i =    62420, time =    31210.000, E =     -1097.1752137944
  O         7.4651973362        0.6869787336       11.0231711134
  H         7.6260887739       -0.2603017789       10.7605216462
  H         8.3827393457        1.1443815741       11.0307017935
  O        12.4301549119       -9.0155314820        9.1594577937
  H        11.4923215713       -8.6049257148        9.2519622447
  H        12.3151727867       -9.9904192854        9.0103460800
  O         9.8226815348      -10.4520995970       10.7034988879
  H        10.1856058247       -9.9503404568       11.4742021301
  H        10.6148746227      -10.9808962471       10.4016784132
  O         4.6179330511       -2.4702932954       12.4008862559
  H         4.3170433585       -3.2504415572       12.9193452855
  H         3.8667461060       -1.8593454865       12.4095310577
  O        -0.9536803599       -9.3977373568       13.0778446442
  H        -0.9373190870       -9.8473505318       14.0334734689
  H        -0.0458644139       -9.1178504145       12.9785571473
  O        12.7735582431       -5.1423778797       21.8713350396
  H        13.1481991374       -5.8510879354       21.3122321153
  H        13.3188231993       -4.3638616716       21.8522741503
  O         9.4031693968        0.3935405422        2.7612253221
  H         9.3524298819        1.2998409959        3.1094414575
  H         9.8288850359        0.5256334107        1.8713123403
  O        13.8788727419        3.6852202314       11.5871459054
  H        13.3015536408        3.5650360598       10.7771796590
  H        14.1140771150        4.6682279888       11.5094017441
  O         6.1290460173       -6.1090821798        2.1517769408
  H         6.3639097770       -6.9063815432        1.6670043437
  H         5.8853915039       -6.4592358312        3.0670003718
  O        10.3736458876       -1.5046799726        8.8315411336
  H         9.6120640350       -1.7084119805        9.4241267217
  H        10.7122847225       -2.4034894032        8.5868950859
  O        10.9002217782       -7.7429228789        3.9400324265
  H        11.5535272926       -7.3975685557        3.3469713376
  H        11.3378345485       -8.4641034971        4.4646527195
  O         6.3567483116        2.1484242213        8.7997875865
  H         5.5523127774        2.0088794762        8.1954254744
  H         6.4592149849        1.3070474245        9.2701453473
  O         2.8292215904       -0.4397245795       13.1880195116
  H         2.1667754642       -0.5030680519       13.9336628121
  H         3.0275296556        0.6256094256       13.2975651194
  O        10.3109137819       -7.0071459553        9.9529828662
  H        10.8431587175       -6.1956686088        9.7796187936
  H        10.2689261666       -7.0396583852       10.9523888686
  O         8.1087988720       -1.9702566268       10.4998582733
  H         7.5975449455       -2.6381459361       10.0457153982
  H         8.3960059601       -2.3164593801       11.3784041686
  O        13.1538939876       -1.2165906982       11.3964365404
  H        13.4223310225       -1.8625469456       10.6882834632
  H        13.9967818248       -0.9211687903       11.8043854843
  O        12.5388431934       -5.1692355993       13.1631499386
  H        11.7392346737       -5.6700706914       12.9334989245
  H        12.1769360831       -4.1357874117       13.0718340276
  O        12.2326830192        1.6660376618       15.2714862854
  H        13.1147558784        2.1446014702       15.3465836353
  H        11.8830739896        1.8558731659       16.1676927495
  O         9.8749964892        5.6172135475        6.7640779329
  H         9.3324251175        5.4511024160        5.9215659543
  H         9.5929089649        4.9477099628        7.4358340065
  O         5.8254738811       -9.9489251912       12.5724711802
  H         5.9720264036      -10.4747878120       11.7567088269
  H         4.8888557735       -9.8928299154       12.8095040608
  O        13.2789237867       -0.7261434716        2.4131298156
  H        13.4118152213       -1.1392677937        3.2956028197
  H        12.7143390640        0.1064403246        2.5711181702
  O         7.5998126638        6.3345529835       10.2327856348
  H         8.5294210815        6.1259776073       10.0329529317
  H         7.0610594642        5.4924507797       10.3368301651
  O        15.8914507962       -0.4845949058       19.4225475189
  H        16.6082338957       -0.6599741026       20.1034915838
  H        15.8759940226       -1.1699662574       18.7475379423
  O         3.8244710537       -2.4021694106        5.2226322104
  H         4.6279353723       -2.0358399931        4.7820367637
  H         4.1665378091       -3.0785351997        5.7643440870
  O         6.2507059276       -1.6238756175        3.9448649169
  H         6.7785082937       -2.4443853509        4.2499217006
  H         6.6551840487       -0.9161269275        4.3991471687
  O        14.7067654973       -6.0466006573       11.8680718276
  H        14.8010417908       -5.6689784715       10.9629469098
  H        13.7719329661       -5.7103822606       12.0955820199
  O        18.0503402794       -8.0786117382       10.5456196839
  H        17.8884668226       -8.6129892350       11.3429509094
  H        18.4679573733       -8.6778124702        9.8707621675
  O        12.4014984333       -3.2479331234       19.4852054058
  H        12.4908179160       -2.5348382057       18.7409386980
  H        12.6321759903       -4.0346360094       19.0293305850
  O         5.6630247913       -4.7043956692        6.7072378904
  H         5.6074769665       -5.6483077713        6.9147493201
  H         6.2468622562       -4.4451123835        7.4319530875
  O         9.0321975649       -9.4003075172       15.6737120436
  H         9.7964973373       -8.7739755370       15.4408717894
  H         8.5299412192       -9.2802698935       14.8329171089
  O         4.3383186607       -3.2748136719        9.6947382481
  H         4.3975609351       -4.2690873088        9.4731134223
  H         4.4579984819       -3.1378141572       10.6488172969
  O        10.0982525971       -1.4691351511       16.9411020432
  H        10.0450198291       -0.8733664854       16.1897365362
  H         9.3070013129       -1.4631416431       17.5547143107
  O         9.7863391022       -4.3033817923        8.0016391073
  H         9.7069613679       -5.2405628534        7.6669529841
  H        10.5111532538       -3.8530000491        7.5265348289
  O         8.2572231895       -1.6969342103        6.8285029153
  H         7.9879105175       -2.5729861340        6.4557479918
  H         8.9440583902       -1.8142103670        7.5304711708
  O        21.9825599075        1.1457135323        6.7674835851
  H        21.7494740815        1.8685757569        7.4840821806
  H        22.1109809200        0.3160606249        7.3141844016
  O        15.6320993303        3.6561876185        5.5122541929
  H        15.1591513423        4.1008221663        6.2630768440
  H        16.2514397287        2.9259775253        5.9092824295
  O        15.5174043888       -4.6736545479       16.2833635863
  H        15.7458054344       -4.7917115728       15.3409897341
  H        15.2981100641       -3.6933077986       16.4290710377
  O        16.5649982576       -6.0713365908        9.4329003936
  H        16.0206555284       -6.6164222708        8.8340051262
  H        17.0680274056       -6.8141021257        9.8658222390
  O        12.3222397209       -5.9008272932       18.2619721340
  H        11.4934127613       -6.2393643372       18.6582444758
  H        12.5246204222       -6.3457641667       17.4171966698
  O        14.0669187364       -7.2338549978        7.9044243211
  H        13.6147696693       -8.0107551465        8.4121878546
  H        13.4910508525       -6.9670947973        7.1593281593
  O         3.8182732842       -4.7629621800        1.1208626080
  H         4.6332527299       -5.3087304367        1.2975106885
  H         3.2115118584       -5.2631936271        0.5067248970
  O        12.5838364705       -1.3363796502       17.6224069410
  H        12.9375305928       -0.5794032649       18.2220020011
  H        11.5761964388       -1.1903809198       17.4969525329
  O        10.1030073052       -4.2650490107       16.9303794493
  H        10.9163403449       -4.4726897929       17.4425528538
  H        10.1747291438       -3.2982425847       16.7465362939
  O         7.9952746958        5.3363677786        4.6455329357
  H         7.0641064060        5.1533977235        4.7984555172
  H         8.3175291667        4.6922555280        4.0321122124
  O        11.5857284118       -2.6273117096       13.1162186981
  H        12.0732702585       -2.3014073677       13.8916660924
  H        12.0635396126       -2.2177690195       12.3803653995
  O        17.2773279698        1.8117574581        6.6826350890
  H        18.1059131285        1.5307963059        6.1653415834
  H        16.7034853541        1.0385934056        6.7065797114
  O        13.5012954635        0.4133410137        7.0722314178
  H        13.0810467383        0.5926965504        7.9385020158
  H        14.4844745979        0.2816524501        7.1150613958
  O        12.0872034324        0.5100010300        9.7016695840
  H        11.5675437052       -0.1785458484        9.2973189797
  H        12.6450378582       -0.0030586017       10.3035462669
  O         7.2761983062        0.8085139978       17.7216334377
  H         7.5367343055        1.3421561369       16.9238174296
  H         8.0688164486        0.8063815611       18.3129016411
  O         5.6861213661       -1.1470707875        8.5418251518
  H         6.6322032016       -1.1405648034        8.1370886972
  H         5.5898160964       -2.0418052414        8.9582298810
  O        19.9752083053       -3.7629703031        5.1960581672
  H        20.8067392420       -4.2066167437        5.1718009788
  H        19.2886982033       -4.3875957051        5.6026266547
  O         7.3454949126       -3.8719880721        8.9075578388
  H         7.2480783663       -4.7412252841        9.3830752489
  H         8.2704269191       -3.8408701101        8.5310353925
  O         1.8187628875       -2.5320831352        9.2383877354
  H         1.3603565030       -2.6802292860        8.3230572268
  H         2.7650202860       -2.8005024694        9.2685389541
  O         8.9920929520        3.1765624055        8.3566137126
  H         8.0285265657        2.9223274030        8.4234766771
  H         9.2702142833        3.0366294867        9.2952689431
  O        11.7748182554        2.2304116426        5.3611307023
  H        11.0181918648        1.6218773571        5.7664240126
  H        12.6034653240        1.9245556648        5.7786959826
  O         9.9303179877       -7.0659380769       12.7229312046
  H         9.6242087233       -6.4195818855       13.4448612916
  H        10.3611509610       -7.7684245330       13.2319475810
  O         8.7087126405       -5.3559323431       14.5134010056
  H         9.3122546060       -5.1795799419       15.2611615917
  H         7.8045827195       -5.6819041644       14.8413648725
  O         0.8584805268       -6.2713258964       15.3894110223
  H         0.4923203209       -5.6922864761       14.6476903654
  H         1.5309675973       -5.6427805094       15.8650495077
  O        15.6749976146        2.3407898765       13.2884005937
  H        15.0173504363        2.6176022441       12.5905886742
  H        15.5529889270        2.9405404490       14.0825536010
  O         8.7702174074       -2.6454326908       12.9693801440
  H         8.4423281991       -3.4652457138       13.4142980215
  H         9.7208509851       -2.6691484465       13.1101009682
  O        17.3980391948       -6.7099473274        4.5667283618
  H        16.8345830086       -7.5146607878        4.6600551201
  H        16.7977668629       -5.9825872969        4.3741963537
  O         2.0990333161       -8.9573138392        3.2251004186
  H         1.7475704481       -8.1161298746        2.9222598689
  H         2.3076850445       -8.8612274765        4.2348418164
  O         7.5612241421       -8.3036092355        1.1813071818
  H         6.8994726180       -8.9446246587        0.7230505021
  H         8.0676704008       -7.9484661206        0.4345235967
  N         6.5863538048       -0.8892189668       13.5977038378
  H         6.5230618022        0.0806219213       13.2921497591
  H         7.5630670900       -1.2384836019       13.6417770854
  H         5.9875590320       -1.3689771049       12.9171816244
  H         6.3515402015       -1.0007179949       14.6029812717
