     194
 CELL 12.4294 12.4294 12.4294 90.0 90.0 90.0 i =    72020, time =    36010.000, E =     -1097.1628946688
  O        11.8856930697        0.2598480133       12.1538441225
  H        12.2997394162       -0.5841223485       11.9304165923
  H        12.7255382650        0.8132247348       12.2873513192
  O        16.7462002238       -9.5951102318        9.5477688579
  H        16.2092219182       -8.7392036288        9.7412922660
  H        16.2493169420      -10.4111330575        9.7447428410
  O        14.3563157014      -10.7727244458       11.5126276662
  H        15.1343979541      -10.4427695362       11.9729755460
  H        14.6000658457      -11.5816303522       11.0290943235
  O         9.0340566298       -3.1250562592       13.0628945470
  H         8.9119982278       -4.0377805038       13.4747660457
  H         8.1643444965       -2.6461137019       13.2331811145
  O         3.4847851028       -9.2619636423       13.3519567742
  H         3.6044658744       -9.7770421483       14.2761896640
  H         4.4239324214       -9.1202713947       13.0318409422
  O        18.3625526643       -5.9008497998       22.7304921092
  H        18.6795350255       -6.5119235559       21.9836930402
  H        18.2395261406       -4.9642128891       22.3569446401
  O        13.3165456570       -0.1119668723        2.7409322640
  H        13.6579368595        0.7893589173        2.8539807509
  H        13.9958684554       -0.6162897492        2.2022211388
  O        18.3927621128        3.1972384587       11.9607093356
  H        18.0667975500        3.2075244711       11.0210545638
  H        18.8092171070        4.0557513176       12.2649859272
  O        10.7351705610       -6.8127238325        3.3772588400
  H        10.8203115670       -7.5525337054        2.7121996839
  H        10.3305747840       -7.2424492402        4.1844336762
  O        13.8219782230       -2.1956831550        9.0359520367
  H        13.5177942591       -2.4310350431        9.9568531911
  H        14.4224440641       -2.8692464853        8.5343783154
  O        15.5195529678       -7.6788863229        4.1708641460
  H        16.2959252160       -7.3238650102        3.6751614824
  H        15.8865355471       -7.9438553037        5.0407997473
  O        10.2082594583        0.8227674640       10.0143525450
  H        10.1414075742        0.0032411546        9.4975167603
  H        10.8766817054        0.6549756713       10.7681577150
  O         6.5274301319       -1.1759396655       13.7905924630
  H         6.1359397176       -1.2279961890       14.7125608086
  H         6.8610541926       -0.2181225899       13.8077323732
  O        15.7073473939       -7.1762211327       10.0055942153
  H        16.5037325332       -6.5706295908       10.0504218041
  H        15.1646843651       -6.9935724474       10.7937066213
  O        12.6457529445       -2.5224468564       11.5712013132
  H        11.9721287816       -2.9855099523       10.9932917749
  H        13.0371647884       -3.1966432884       12.1389825177
  O        17.0104088620       -2.6017202372       12.1879697098
  H        17.1461033975       -2.7644375270       11.2474671724
  H        17.8628151409       -2.0543236412       12.5620779532
  O        16.2496569976       -4.8242951150       13.8942420543
  H        15.6846425184       -5.3860201400       13.2856745803
  H        16.4722290784       -4.0086431597       13.3191190861
  O        16.7217692413        1.6551615911       15.7955637639
  H        17.5607843740        2.1695113699       15.7325273084
  H        16.1655078212        1.9494142606       16.5937995666
  O        13.6638409544        4.6406639629        7.2193903531
  H        13.0769883425        4.0841759627        6.6966539401
  H        13.4385493542        4.5536362424        8.1797711415
  O        10.4062411907      -11.4508785931       14.4995178895
  H        10.7528299565      -11.9504807908       13.7004685696
  H         9.4157504498      -11.3137706539       14.2447000354
  O        16.9969484915       -0.9399057227        3.3874043957
  H        16.9543262914       -1.2841221887        4.3289371979
  H        17.0401058373        0.0163333187        3.4030452636
  O        10.5704258481        4.0569347457       11.3190878104
  H        11.4074793982        3.7469132252       10.8861772785
  H         9.8290215716        3.5679805233       10.9640878278
  O        19.3280125945       -2.0434655941       20.3238302115
  H        20.2154483692       -1.7955414671       20.6807483613
  H        19.5596253767       -2.6164311337       19.5219217762
  O         7.8275039136       -4.0198364513        6.0706551368
  H         8.4909587584       -3.5863544679        5.5020518672
  H         8.4107590912       -4.6349357024        6.5637657245
  O         9.9568364284       -2.5222952816        4.9126997245
  H        10.2967275682       -2.5390982668        5.8243355574
  H         9.6542364553       -1.5996412059        4.7436487348
  O        18.9844964915       -6.8689402642       12.8153250892
  H        18.7239980004       -6.4247854874       11.9295183826
  H        18.3223772739       -6.6274140858       13.5177361005
  O        20.8114972262       -9.5390705390       10.2238152049
  H        20.1628965838       -9.7173312144       10.8766377176
  H        21.2714276263      -10.4193824706       10.1542056672
  O        15.7225705034       -3.7526675971       20.3048859061
  H        15.9975013799       -3.0595212171       19.6542098165
  H        15.8915017982       -4.6664079862       19.9874999838
  O         9.3667285541       -5.9426787532        7.4338983332
  H         8.6759039647       -6.5774456719        7.6410665703
  H         9.8714539943       -5.8452017185        8.2461262299
  O        13.5774433734       -9.4372478836       15.5369509170
  H        14.2369858788       -8.7505550676       15.8022621415
  H        13.0232482458       -9.0521368665       14.8628652878
  O        10.3698056156       -3.3219662215       10.8515348489
  H        10.2850293917       -4.2999116582       10.7468386512
  H         9.8123665128       -3.1279283623       11.6419358165
  O        13.9055191849       -1.6514609614       17.5806777514
  H        13.9698347941       -1.0292497399       16.7767180988
  H        13.0885517459       -1.4897590732       18.1156750552
  O        13.4486060975       -5.1923518792        9.3360776623
  H        13.3452721763       -5.1647162542        8.3616482845
  H        14.0273312379       -6.0149972096        9.3975247991
  O        11.7534618190       -2.2071577049        7.1442545067
  H        12.0388678700       -3.1701647893        7.0797563820
  H        12.3403922586       -2.0251773842        7.9093302963
  O        24.3331575499        2.0365168467        7.9304155872
  H        24.6708413136        1.3828508680        7.2691206670
  H        23.8129425790        1.5371189544        8.5667783710
  O        20.0508967636        2.9424445496        5.6291921906
  H        19.1829818896        3.3074370895        5.9548483339
  H        19.9882784160        1.9852062016        5.7353788631
  O        19.6644130347       -6.1475083685       16.8685307111
  H        20.2529790852       -5.9187056061       16.1166939985
  H        19.7522285793       -5.3962238108       17.5566041158
  O        19.7811197358       -7.6873170185        8.4926872437
  H        19.0451307690       -7.9900754635        7.9035865089
  H        19.9666464193       -8.5167252986        9.0510712881
  O        16.0486401630       -6.2670474211       19.1271948492
  H        15.1756089188       -6.6163765507       19.0117481827
  H        16.1965947122       -5.7988093996       18.2768163343
  O        17.5421257871       -8.4792432158        7.0523960199
  H        17.1245580513       -9.2037761547        7.5740477329
  H        16.9763466077       -7.6588958044        7.1588005035
  O         8.7802576865       -5.5757415203        1.9165209383
  H         9.5994563128       -5.9851423127        2.3148845087
  H         8.3053696494       -6.2467215446        1.3515261378
  O        16.3074495290       -1.7846633203       18.6600710787
  H        16.6113632018       -0.9241410245       19.0725107366
  H        15.3906209634       -1.5972417599       18.3366752093
  O        16.6520210153       -4.4036493838       16.9558281196
  H        16.0034727246       -4.1482309748       16.2482534804
  H        17.1035655639       -3.5382333939       17.1172789576
  O        12.2660660815        2.3561544803        5.3643100956
  H        12.4597586931        2.6051138429        4.4249058113
  H        11.5238115312        3.0524922668        5.6083180354
  O        15.1133517826       -1.8188064225       14.1935164020
  H        15.9025561765       -1.6300290365       14.8124750056
  H        15.4594335843       -1.9365872429       13.3104391271
  O        20.0305591644        0.1855029896        5.3031567919
  H        21.0235305433        0.1953916072        5.2782375725
  H        19.7201938831       -0.0220159595        6.1809822564
  O        17.4584677629        0.3818241596        7.6700607310
  H        16.7991038592        0.3069896979        8.4667191668
  H        18.1242928780       -0.3305235653        7.8412044025
  O        15.8829300883       -0.2841109460        9.9536693436
  H        15.0802927598       -0.8791083721        9.6680816463
  H        16.2717011919       -0.8030410450       10.6647739816
  O        10.3901141627        0.3389408892       17.0935853834
  H        10.5724101321        0.6764542582       16.2145509598
  H        11.0308210290        0.8202540475       17.6163215310
  O         9.5615223056       -1.5789361978        8.8490519440
  H        10.0211745624       -2.0472255089        8.1280785830
  H         9.6533574033       -2.2394440454        9.6401374938
  O        24.5263145233       -5.0663645514        6.8994083209
  H        25.0009745069       -5.1612933842        6.0174749747
  H        23.6467952598       -5.5314932324        6.7507351876
  O        10.6331872772       -5.8913402505        9.8391429546
  H        10.4604758052       -6.6954359556       10.4018367398
  H        11.5988653382       -5.6943388097        9.8417304732
  O         5.2116935586       -3.4767112375        9.7018248113
  H         4.3303724953       -3.6940798010        9.1248371747
  H         5.8492771106       -3.1089954229        9.0390003926
  O        12.7880798416        3.7493018367        9.7072298221
  H        12.5376257027        2.9927703760        9.0628094856
  H        13.5057619364        3.3673545398       10.2633732549
  O        15.2504814255        2.2059352037        5.7658942402
  H        14.2837273849        2.1283168719        5.8617216207
  H        15.7136398953        1.6200587672        6.4487199186
  O        14.5239360614       -6.8290809880       12.7810153835
  H        13.7827492185       -6.6160612515       13.4303710504
  H        14.8207360030       -7.7180544380       13.0351066884
  O        13.1893855091       -5.6979506079       16.3685841163
  H        13.8897166712       -6.4129303367       16.4009593544
  H        12.3350365369       -6.1307053220       16.0400310505
  O         5.2865910389       -6.5965938535       15.2812229083
  H         4.7285799511       -5.8074702808       14.9501194721
  H         5.9152262609       -6.2123148813       15.9767400815
  O        19.8890252190        1.5867972268       13.6178602197
  H        19.3485093079        1.8148234907       12.8355064770
  H        19.4227723470        2.1581143126       14.3311503915
  O        13.4126756304       -4.0378890126       14.2029209092
  H        13.1888152251       -4.6027508123       15.0375480732
  H        14.3061391012       -3.6653738008       14.4893118076
  O        22.4338420696       -8.2281639025        5.7605625035
  H        21.6893485508       -8.7705984590        6.1325911618
  H        22.5474501652       -7.5091375348        6.4561705330
  O         6.4121743356       -8.9968639184        3.0771969607
  H         5.9782657539       -8.1427862750        2.8863384978
  H         6.8942164881       -8.8707387237        3.9414564129
  O        11.4554462768       -8.5784274970        1.3984556151
  H        11.0498367322       -9.5073370060        1.4776446708
  H        11.0909859970       -8.3098894126        0.4737023121
  N        11.5070518927       -2.1414787899       14.8200956271
  H        11.9448925556       -1.1647893675       14.7996895198
  H        12.1307133279       -2.9085189733       14.5369030440
  H        10.7576074829       -2.1312273767       14.1425762258
  H        11.0834170967       -2.2372810459       15.7337271070
