     194
 CELL 12.4294 12.4294 12.4294 90.0 90.0 90.0 i =    52020, time =    26010.000, E =     -1097.1366370119
  O         1.8788990083        0.9054656923       10.9469261298
  H         1.3970503748        0.5955237758       10.1459103967
  H         2.7890610835        1.1423085612       10.6333688108
  O         7.7211323986       -8.9702317467        9.1684728676
  H         7.0991263617       -8.1647722521        9.0171217644
  H         7.3547379365       -9.7312222508        8.7237049774
  O         4.9054673853      -10.4332945051       10.5666685351
  H         5.2559617536       -9.7109472378       11.1156011674
  H         5.6586978193      -10.9697460922       10.1778655244
  O        -0.4388537734       -2.6799651365       11.7396556970
  H        -0.5204290963       -3.5157561077       12.1881341151
  H        -1.2339368494       -2.1257661424       12.0593022660
  O        -6.1755928360       -8.6360794657       12.2951850030
  H        -6.0070181829       -9.1867693958       13.1067464743
  H        -5.2477710216       -8.6200010854       11.9531783564
  O         6.6842110912       -2.9213705682       19.1547645951
  H         6.3969815985       -3.6676112955       18.5284434253
  H         7.6157533035       -3.1090305500       19.2524099204
  O         3.9135132537        0.9216504904        0.9760940284
  H         3.9713682460        1.8374799032        1.2917198607
  H         4.3011561585        0.8442592586        0.0514598495
  O         9.0268924293        3.6816197690       11.4118785505
  H         8.5741415073        3.3993909871       10.4886408947
  H         9.5602895897        4.5313538743       11.3381686726
  O         1.7442039036       -3.7120795376        2.3548980911
  H         0.9208238968       -4.2296856906        2.2698043901
  H         2.0248663842       -3.5674643723        3.2951880882
  O         5.0298990951       -0.6282996472        7.6729366018
  H         4.2684344684       -1.0860577424        8.0199595325
  H         5.6978765036       -1.3651101338        7.5118942439
  O         6.4621544892       -7.0139571631        3.4686216796
  H         7.2388629105       -6.8364786870        2.8632070670
  H         6.7543749378       -7.7762189874        4.0621465594
  O         1.6183625398        3.3847565144        7.5350791678
  H         1.7696839406        3.9318746134        6.6838415052
  H         1.1316773210        2.5607845786        7.1949683254
  O        -2.4574619896       -0.7171261480       12.5967834561
  H        -2.9557490176       -0.8966336447       13.4026325636
  H        -2.1170904980        0.2047391871       12.7212595952
  O         5.4370909917       -4.5706329630        8.7585992745
  H         5.7268659875       -3.6712133405        8.4070819250
  H         4.9241277968       -4.5212353285        9.6247020139
  O         2.8898246882       -1.5898542012        9.0453714640
  H         2.6980903401       -2.5445491161        8.8707323721
  H         3.3971158507       -1.5516219568        9.8927560635
  O         8.7041468611       -0.7004282264        9.9386991124
  H         9.4237387544       -1.3335923789        9.5824509414
  H         9.2034641234       -0.2196230818       10.6867199493
  O         7.5350760357       -5.0412194710       11.5567874072
  H         6.6968509872       -5.4923885730       11.3365777351
  H         7.3423097445       -4.0173319505       11.6705448597
  O         6.9251893263        2.1879651749       14.4402242291
  H         7.7099128555        2.4091824455       14.9940074943
  H         6.2451277068        1.9800554241       15.1002138204
  O         6.0780500256        5.1134340315        7.9208260937
  H         5.2608739138        4.6289599674        8.1115692593
  H         6.0033649317        6.0113594638        8.3549439034
  O         0.5006652835       -9.1856864077       11.6459333852
  H         1.0209575946      -10.0460117295       11.5393197054
  H        -0.2991528282       -9.6480994319       11.9993244084
  O         7.5790266344       -0.6850462977        1.8617658147
  H         7.1421568848       -0.7113714446        2.7265553081
  H         7.4178415398        0.2706136120        1.6644885962
  O         2.6269274299        6.3646071688       10.5320680529
  H         3.5111737851        5.9598439679       10.6411913250
  H         1.9747865946        5.7065648523       10.1919969453
  O         9.5817520727       -1.3915803951       16.7487804424
  H         9.2980450577       -1.8733142125       15.9560801385
  H        10.5320847046       -1.3913595864       16.4872967568
  O        -0.3854502213       -1.3798822860        2.8387557378
  H         0.2520554809       -0.8091451902        3.3545482374
  H         0.0532626499       -2.2167897415        2.4762167027
  O         1.2471866148        0.4278694667        4.2238814818
  H         2.0204401758        0.0368983489        4.6288548200
  H         1.6990627331        1.2291816897        3.8148519954
  O         9.9818864045       -6.1152492300       11.1965895532
  H        10.3124308413       -6.0318205351       10.2327609589
  H         9.0657689572       -5.6686104978       11.2339475244
  O        13.1782509895       -7.6166557275        9.6004910581
  H        12.9348956251       -8.2484540779       10.3691215508
  H        13.3411530685       -8.1770092919        8.7716987807
  O         8.4870644138       -3.5282085547       14.4733568177
  H         7.5910175280       -3.2551728814       14.4784912076
  H         8.8748047827       -3.3682545284       13.5856924804
  O        -0.1201076973       -4.3359656497        6.3309272743
  H        -0.1627160351       -5.1855797692        5.8504534651
  H        -0.1872735976       -4.4905403551        7.3084068533
  O         4.0175424323       -8.0794259709       14.7325158975
  H         4.8224031860       -7.6502444224       15.1415402365
  H         3.5338676035       -7.4572705655       14.1322731703
  O        -1.6436917288       -2.2767576645        9.0482551326
  H        -1.9537994282       -2.8243505198        8.3063896751
  H        -1.2369585546       -2.7846332318        9.7476249289
  O         4.1203996121       -1.3591692964       14.9411573075
  H         4.0227723697       -0.5035951199       14.4937113446
  H         3.8146405725       -1.2356577184       15.8679821172
  O         3.5694179527       -5.3860255086        6.4446666727
  H         3.1025501488       -6.2751263341        6.2782200412
  H         4.0509904769       -5.3514218077        7.3893729806
  O         3.4267355974       -0.8266227838        5.2351963320
  H         3.1546668770       -1.7792325955        5.4190596151
  H         4.2108596530       -0.7040944975        5.8359485594
  O        17.2347264925        2.0362075337        6.0631322850
  H        17.0947559756        2.4709987074        6.9935229214
  H        17.4033769058        1.0752186680        6.3183421143
  O        11.1122969801        3.5531338385        5.1732182468
  H        10.3445210269        3.6794641174        5.7647007398
  H        11.6268955531        2.9131765712        5.6951023092
  O        11.1535822852       -4.6016858900       15.5276602593
  H        11.2489083316       -4.9127661871       14.6274208753
  H        10.2985313718       -4.2300866031       15.5055937433
  O        11.1962289700       -5.9396287960        8.8290434017
  H        10.7235583693       -6.4046065916        8.1384850478
  H        11.9346564063       -6.5588129582        9.1656688944
  O         5.7226004240       -4.7710110212       17.4869163977
  H         6.1223546946       -5.6129115138       17.0842668477
  H         4.9195433307       -4.9856446261       18.0575292761
  O         9.2645099302       -7.5888277062        7.0836648788
  H         8.6693264284       -8.1560964088        7.7719269573
  H         8.6382777504       -7.4048563364        6.3575054199
  O        -0.5990457702       -5.3317620242        0.7059172048
  H         0.1383194859       -5.9818387181        0.7895521797
  H        -1.1660699534       -5.6430695955       -0.0692716051
  O         6.4927695127       -0.5175943458       16.7267292605
  H         6.8949236589        0.1913096265       17.2786760445
  H         6.8144523590       -1.3641449816       17.1780851653
  O         5.8437453800       -3.1103021923       15.1475324677
  H         5.5815535638       -3.5514825258       15.9702414986
  H         5.3492702185       -2.2373130271       15.0252787204
  O         2.1962687163        4.9225011453        5.3960209827
  H         1.4058869243        5.3150232695        4.9902888819
  H         2.3358299289        4.2492979316        4.6906212531
  O         7.1838922737       -2.2120490822       11.7922209381
  H         7.3579903369       -1.6761594366       12.6209040516
  H         7.4685392876       -1.6753672324       11.0200310798
  O        12.3292592893        1.4385409727        6.6405678405
  H        12.5936562290        0.9396958037        5.8535127875
  H        12.1664895636        0.8099926995        7.4274712325
  O         9.0299231740        0.9633431351        6.2078763525
  H         9.8353812937        1.1006679479        6.6812058528
  H         9.2405929497        0.2733263833        5.5036034962
  O         6.7481331193        0.9725815044        8.9426844733
  H         6.2270377607        0.2611833563        8.5004042523
  H         7.4293655700        0.3361289590        9.3265056157
  O         2.9574861080        2.7842310591       16.4462024062
  H         3.3490819467        3.3451361789       15.6947523641
  H         3.6349082345        2.5538932860       17.0879864461
  O         0.2834639598       -0.3077496003        8.8222596529
  H         1.1203865812       -0.8879213976        8.8519614759
  H        -0.4323672646       -1.0266243173        8.8547721514
  O        14.7387170065       -3.3174964079        5.0172816451
  H        15.3127768244       -4.0928258327        5.3279588869
  H        13.8095956038       -3.6561362022        5.3516687367
  O         1.8965496498       -4.1271466128        8.4023421123
  H         2.1258433035       -4.6662943105        9.1953167114
  H         2.1888335679       -4.6483296288        7.5964458956
  O        -2.5556182191       -3.3423518451        6.5923109860
  H        -1.6186499896       -3.5797155083        6.3055368939
  H        -2.6504847024       -2.7029344129        5.8137165616
  O         4.1308121081        3.1684386520        8.2453681518
  H         3.1350825287        3.1121541171        8.0732182365
  H         4.3209051957        2.7235402125        9.1096180426
  O         6.9475002806        3.0628672919        4.9365346647
  H         6.1537011178        2.7317950270        5.5030656334
  H         7.4725373700        2.3184750312        5.2965523845
  O         5.1223362857       -6.3865344315       11.5246152434
  H         4.6559286920       -5.7436160323       12.1484545007
  H         5.5082982721       -7.1616204963       12.1266284271
  O         4.1510095177       -4.2526903716       13.2699964545
  H         4.9203323158       -4.1215221487       14.0143330421
  H         3.2719411236       -4.2008686105       13.7974694483
  O        -3.8950987080       -6.3699498384       14.1443439507
  H        -4.3843427580       -6.3452964648       13.3092944625
  H        -3.7361063148       -5.4010719932       14.3058108869
  O        10.6240136892        1.9036409018       12.9167381520
  H        10.0552752004        2.4571884331       12.3383530848
  H        10.4845107089        2.3074581296       13.8222124952
  O         4.5823046410       -2.5508612442       11.1998172178
  H         4.3152351148       -3.1828831327       11.9551554367
  H         5.4662675088       -2.1859907047       11.4887700302
  O        12.3383734843       -6.4147764788        4.6717558707
  H        12.0100822337       -7.3648158253        4.9364531548
  H        11.7548127395       -6.0153807810        3.9923954412
  O        -2.5715277105       -8.8468965514        2.5092123657
  H        -3.0451002410       -7.9556385209        2.3767410579
  H        -2.3408867593       -8.8545227031        3.4495048531
  O         2.0508122352       -6.9458442689        0.6462106746
  H         1.7852828236       -7.8673256082        0.3479076356
  H         2.5094981025       -6.5678923851       -0.1477002876
  N         1.9030387186       -1.6400065610       12.8005116522
  H         1.9715747533       -0.6676817519       12.4882425607
  H         2.6230033142       -2.2496363190       12.3077578427
  H         0.9281974744       -1.9513800070       12.4036088396
  H         2.0498975814       -1.6935918969       13.8616766825
