     194
 CELL 12.4294 12.4294 12.4294 90.0 90.0 90.0 i =    30820, time =    15410.000, E =     -1097.1138557077
  O        -8.4033815423        4.9273297040        6.8300890265
  H        -8.7173221279        4.0178425654        6.7064135707
  H        -7.4669256090        4.8743633785        6.5741153352
  O         0.7685839811       -8.1566454726        4.6786364406
  H         1.1973304020       -7.2600170026        4.6578047625
  H         0.9863212174       -8.4141476014        5.5887817388
  O        -3.7095875886       -7.7400021867        8.3485065608
  H        -4.5138875628       -7.1141173896        8.3298068029
  H        -3.0532942706       -7.0543033744        7.9925380569
  O        -8.5718604730       -0.6326137239        7.4904082366
  H        -9.3336690662       -1.3130207191        7.6470214415
  H        -8.5562320928       -0.1341307389        8.3487746658
  O       -17.5343147057       -5.4212654524        7.9774940641
  H       -18.0529732300       -4.8052823681        8.6019565838
  H       -16.6869618509       -4.8856463361        7.7340611577
  O        -2.3765354190       -2.1798910055       14.1093890198
  H        -2.1158955409       -1.2660590262       14.4632721442
  H        -1.7166546399       -2.4669618953       13.4658191959
  O        -3.8021430485        4.5043375261       -1.5096792051
  H        -3.0398141691        4.4803132794       -0.9023652539
  H        -3.5123123034        4.6559606376       -2.4817994613
  O        -1.9527684281        4.3608447658        5.2286745711
  H        -1.9121070970        3.8757565999        6.0367606817
  H        -0.9937584867        4.3882262133        4.8351383023
  O        -9.1096455604       -3.4027212750       -0.1829329736
  H        -9.0820899869       -4.3568639090       -0.5235442109
  H        -8.8547383338       -3.5560107914        0.7808599469
  O        -2.6491472594        1.5314276973        1.1485383535
  H        -3.0378683347        0.7644508425        0.6960975861
  H        -1.9695890164        1.1534488546        1.7702759611
  O        -1.3836126450       -4.0815799333       -0.7615811719
  H        -0.6503814745       -3.5142568605       -1.0613905480
  H        -1.0871514635       -4.5525986270        0.0239104327
  O        -7.9628383226        6.1448252529        3.9037016195
  H        -7.5843603420        6.2294374978        3.0352788996
  H        -7.9949123411        5.2214110712        4.1432411556
  O       -10.9441335284        3.8127141780        9.3362162616
  H       -11.6741871001        3.2741992039        9.7030913133
  H       -10.4400048227        4.2012915279       10.0291442980
  O        -2.6015500842       -4.4033942890        4.2690351389
  H        -2.1751657189       -3.7707828101        3.7466700349
  H        -3.1501463406       -3.8779021695        4.9387805383
  O        -4.1277312448       -0.8326332849        3.9793725400
  H        -4.8859469319       -1.3291404231        4.3706142573
  H        -3.6017855149       -0.5893912711        4.7863299705
  O         1.9211694496        2.2958922432        6.4422961279
  H         2.0815437058        1.6091899239        5.7746235359
  H         2.1099356270        1.8756357137        7.2820919836
  O        -0.8412517919       -0.0187543988        2.6907832039
  H        -0.5997503054       -0.7049685157        3.3483974871
  H         0.0357745737        0.1780237815        2.2932211312
  O         0.4021478552        6.7380920597        9.9365212942
  H         0.4565868183        6.6829964010        8.9326467900
  H        -0.1819809687        7.5039993837       10.1887085682
  O        -3.7376837735        6.0396884112        2.5997174301
  H        -3.8332815601        5.1050135561        2.9306915566
  H        -3.5677447800        6.6272855791        3.4438926830
  O        -8.2692983559       -7.5190190744        9.5791173596
  H        -7.4715608393       -7.0182068949        9.8701293603
  H        -8.3764103215       -7.6401386290        8.5826013898
  O        -0.4043051638        1.9132607435       -2.3573410168
  H         0.1729563934        1.3487870831       -1.7886357265
  H        -0.9763289164        2.5277893037       -1.7726787126
  O        -7.0821575159        7.6081013334        6.0001994684
  H        -6.2742253703        7.3770369185        6.5361816834
  H        -6.9841995323        6.9248150682        5.2557580101
  O         1.7173842121        0.3404663950       11.3560977589
  H         1.4718089232       -0.5967117795       11.1938376632
  H         2.5639340915        0.5222648776       10.8237166105
  O        -7.4037343154       -1.6490630636       -1.4567869567
  H        -6.7406723229       -1.6595425162       -0.7106265511
  H        -7.9841971634       -2.3897035387       -1.0399875960
  O        -7.1629554149        3.0640242528        1.5447878853
  H        -6.6336526861        2.6150045998        2.2912043719
  H        -6.8084347095        3.9800034535        1.5397150420
  O         0.0719599625       -1.8965161917        4.5172626898
  H         0.2840064809       -2.7009203770        3.9465683521
  H         0.8984263424       -1.3149499555        4.5051026406
  O         2.1684732052       -5.2838316475        5.2423701709
  H         2.1175502399       -5.7172184951        6.1741520638
  H         3.1130278107       -5.2557826334        4.9203396695
  O        -2.1044096078       -1.0521216193        8.6550349998
  H        -2.9278150235       -1.2452592930        9.1284601710
  H        -1.5153295304       -0.4897638310        9.2518420217
  O        -9.2517037737       -3.0746007400        2.5003314162
  H       -10.0832056022       -3.4192020451        2.8951080057
  H        -8.4730807803       -3.2024436371        3.1284354274
  O        -6.8752504948       -3.8983195181        9.6091472427
  H        -7.0071600561       -3.0454951663       10.1015732195
  H        -7.5951189109       -3.9356699945        8.9184961240
  O        -9.9679428795        0.1566738775        4.9545941260
  H        -9.5602827073        0.1040331784        4.0794587559
  H        -9.2714169833       -0.1476449667        5.6406277123
  O        -4.4985110891        1.6569509345       10.6351144062
  H        -3.8692420530        2.4160289253       10.6936200043
  H        -5.3651273870        1.9643043540       10.9266190047
  O        -4.9129908880       -3.8253539957        1.9085174942
  H        -4.6257664290       -4.7443445860        2.0572897055
  H        -4.1326612609       -3.2038576511        2.0596562615
  O        -6.3156566584        1.1259430164        3.3502189410
  H        -6.8787534778        0.3618324727        3.3301880919
  H        -5.3745686382        0.8165849317        3.3362291118
  O         6.5218183891       -1.1545265956        0.6337462545
  H         5.8744429566       -0.7082623519        1.2054362963
  H         7.0403971906       -1.7574429180        1.2579383992
  O         5.3436271707        2.7646593412       -1.3828707902
  H         5.3868633441        2.8730565873       -0.4136352419
  H         5.1169168957        3.5687645388       -1.9135931790
  O         1.1805156591       -2.2817329501       10.8230569049
  H         1.4201119219       -2.4231643697        9.8623884760
  H         1.7579007075       -2.8410980717       11.3791139827
  O         0.7610368676       -4.2134288177        3.1078398907
  H         0.2526603368       -4.8831503512        2.6179337676
  H         1.1089046459       -4.6202847968        3.9065240960
  O        -4.3380112461       -3.8010686955       11.2531465854
  H        -3.4015828774       -3.7009536400       11.1053440350
  H        -4.3431270651       -3.9488627642       12.2392049878
  O         1.0480103112       -7.9552274489        0.3605464614
  H         1.4867994087       -8.4055749157        1.1005100735
  H         1.5813568119       -7.1941300520        0.0591993590
  O       -10.7643171980       -2.4554864144       -4.3476575794
  H       -10.1367865540       -3.1845395935       -4.4932218879
  H       -11.5049922892       -2.6647391931       -4.9649858603
  O        -1.4162653970        3.6372236086       11.8021554181
  H        -0.6244706152        3.9942345317       12.2441197205
  H        -1.8014628022        3.0295735690       12.5065256115
  O        -4.6224154337       -1.3839995844        9.9124158564
  H        -4.7040992418       -2.2501948455       10.4482083074
  H        -4.7805320522       -0.6370891437       10.5190472810
  O        -6.3566429609        5.8507252193        1.5273634996
  H        -6.2515170894        5.8472445452        0.5410187820
  H        -5.4438515041        5.7272441880        1.8464904366
  O        -0.7581240794        2.5988475278        7.4406428476
  H        -0.7783049563        2.2948647877        8.3671794912
  H         0.1056630409        2.3727513841        7.0678417212
  O         2.4638170578        3.2616960276        2.4362917832
  H         3.3971130090        2.9824286235        2.2288384114
  H         2.2264300582        3.1502155865        3.3691370784
  O         1.7598180137        0.7750375105        1.5898606875
  H         1.8261906492        1.7315552499        1.8573621221
  H         1.6881545459        0.6905702387        0.6206640861
  O        -4.2264818806        3.4611494782        3.4033356732
  H        -3.9871554860        2.9033021594        2.6056452130
  H        -3.4412066063        3.6327054852        3.9746580962
  O        -6.0717261599        5.9314444642       11.3328613670
  H        -5.8106648582        6.9011501746       11.0763951395
  H        -5.2726445800        5.3866555121       11.0482110971
  O        -6.7464851684        2.0150194042        5.9868132493
  H        -6.5188272468        1.6611961936        5.0834409811
  H        -7.2431749221        1.3158862590        6.4241689545
  O         4.0132999133        0.6329768364       -2.4815055228
  H         4.4231401909       -0.1483203536       -2.0588065230
  H         4.4501365366        1.4758242903       -2.2069861433
  O        -6.7281676214       -2.6993333043        4.1839614223
  H        -7.0307644513       -3.1294760269        5.0227923125
  H        -6.3860325802       -3.4320456663        3.6111618297
  O        -8.3858757019       -0.3768972869        2.6535226439
  H        -8.6257432522       -1.2718415763        2.6183980137
  H        -8.9162017576        0.1092013071        1.9826264761
  O        -5.8476244821        4.6595592200        5.5793942825
  H        -5.1968847024        5.1961041578        6.0671042440
  H        -5.3322813810        4.0914569556        4.9500302938
  O        -0.7473442720        6.6286921020        1.4427267749
  H        -0.1571041911        5.9052499997        1.0917913616
  H        -1.5959849756        6.2346714100        1.6179019792
  O        -3.8434092897       -3.1120008456        6.5295096942
  H        -4.7166654641       -2.6484551275        6.4297724625
  H        -3.1086326340       -2.5250921978        6.2626684458
  O        -5.8687146458       -0.8647379974        7.3482713005
  H        -5.4097182335       -1.3070500890        8.1175461742
  H        -6.7744022997       -1.0513855794        7.4291366280
  O       -13.3371488871       -3.1124316417        7.0976563933
  H       -13.1974724482       -2.6565162985        6.2572967003
  H       -13.7015706332       -2.4322080047        7.7281676096
  O         1.1454994781        5.5643814545        7.4289964769
  H         1.2152208642        4.7845342402        8.0662586643
  H         0.2002731982        5.6735181045        7.2154364746
  O        -2.6195281579        0.3638437568        6.5346347868
  H        -2.3508624282       -0.2031347329        7.3657062582
  H        -2.1175439487        1.1854642949        6.7315657538
  O         2.6438628685       -6.0707280709       -0.9310288280
  H         3.2499920710       -6.5232356717       -1.5614507825
  H         1.8794173433       -5.8365575619       -1.5494566630
  O       -14.1109191128       -5.9050873392       -5.4969647223
  H       -14.4529665695       -6.3632459349       -6.2894181245
  H       -13.9458889052       -4.9800547684       -5.6823978928
  O        -8.9597416218       -4.5349429513       -4.3820824670
  H        -9.2229016132       -5.2999020739       -3.8398223783
  H        -8.3926353658       -4.8806906620       -5.1417418388
  N        -4.6533490139        2.0256023565        7.7761331937
  H        -4.3016577903        2.9514273257        7.7029927248
  H        -3.9168087026        1.3647056178        7.4058507521
  H        -5.4954860388        1.9805172432        7.1290061523
  H        -4.9060433787        1.8637708629        8.7539527969
