     194
 CELL 12.4294 12.4294 12.4294 90.0 90.0 90.0 i =    34020, time =    17010.000, E =     -1097.1210514241
  O        -5.2145491462        3.4876377850        8.5638957423
  H        -5.6264900502        3.4503100353        7.6661924075
  H        -4.2617130809        3.7144421386        8.4363792178
  O         0.7688268005       -9.7662563861        4.3602700852
  H         1.5399571299       -9.6430468495        3.8005669324
  H         1.1303145644      -10.1321631992        5.2385298454
  O        -2.2348057984       -8.4745418563        8.5114402644
  H        -2.1441343724       -7.5038062529        8.2533014284
  H        -1.3977538886       -8.8749975311        8.1797213270
  O        -7.5787592843       -0.8490770655        8.9003469399
  H        -7.6768037873       -1.8855896366        8.9289228887
  H        -8.2420201050       -0.5700579747        9.5434568480
  O       -14.9124361381       -5.8685217181        8.4054424218
  H       -15.0388084170       -5.4309619850        9.2731106327
  H       -14.0702264354       -5.5779906407        7.9967211184
  O         0.4452741594       -3.2893664293       16.3273091641
  H         0.2432325341       -2.3023141852       16.4845218206
  H         0.4382926616       -3.5033792480       15.3426774972
  O        -2.4438234393        3.6549518489       -1.4029655136
  H        -1.4942760332        3.8847788260       -1.3465797529
  H        -2.4644194587        3.6864255972       -2.4473755125
  O        -0.2627118421        5.3843194903        6.4841044173
  H         0.4856481781        5.0244041087        5.9646997813
  H        -0.6764343612        6.0889920230        5.8272791501
  O        -7.2150400013       -3.4405748451        0.6550918092
  H        -7.0455398198       -4.3466997180        0.9472251957
  H        -7.2889389220       -2.9574905518        1.4977118277
  O        -2.5926552466       -0.3200412062        2.5311077154
  H        -2.9787986073       -0.5691928670        3.4200415821
  H        -2.2095529317       -1.1241252277        2.1544544864
  O         0.2997223823       -4.2879444241        0.9457491551
  H         1.1307547712       -4.3425706073        0.3415567506
  H        -0.0571291215       -5.2053208126        1.0612735668
  O        -4.7625567988        5.7149852883        4.9601746323
  H        -4.8717851067        5.5868547418        3.9948557090
  H        -4.5291013688        4.8381038932        5.3753842569
  O        -8.1455783404        2.4376156488        9.4279526404
  H        -9.0104261695        2.2967478759        9.8993703573
  H        -7.7044441414        1.5467096902        9.3835939888
  O        -1.3275514511       -5.0556358695        4.9625820830
  H        -0.6104248343       -4.4160066883        4.6711381606
  H        -1.9099317320       -4.5850064628        5.6136269138
  O        -3.8883825752       -0.4226605968        4.6350741961
  H        -4.4309182188       -1.2514282319        4.8262302048
  H        -3.1977058871       -0.3376358242        5.4283442472
  O         1.7579697497        1.7898727735        6.8114054757
  H         2.5673724154        1.2408569811        6.6751706338
  H         2.0814597732        2.6853156597        7.1257737163
  O         0.6339633769       -0.8260928536        4.8328385006
  H        -0.0804334434       -0.2191165252        5.0376825942
  H         1.1376588715       -0.4479419178        4.0284743551
  O         0.1533527239        4.4199244916       11.3155459942
  H         0.7769148712        4.8986308433       10.7151968982
  H         0.2858018733        4.8680307166       12.2129789116
  O        -2.1652202422        4.8220182976        3.5203288124
  H        -2.4636118468        4.0766336751        4.0865623125
  H        -2.0247049372        5.5770443189        4.1162704220
  O        -6.5655649317       -7.5172910991       10.7250683908
  H        -5.6984868388       -7.3155680168       11.2026209023
  H        -6.2550070866       -8.1957414111       10.0941635855
  O         1.1633698076        1.8250744477       -1.6262525989
  H         1.2901618672        0.9947250003       -1.0526275517
  H         0.7909978904        2.5232085073       -1.0456702351
  O        -4.6793371566        7.8539262271        7.0252368286
  H        -3.8602952009        7.2719562431        7.2597261755
  H        -5.5024673179        7.3367076423        6.9239034470
  O         1.5738569497       -0.7974018719       12.1402957417
  H         1.1211676192       -1.6167385687       11.8418836032
  H         2.5753341983       -0.9010157103       11.9147276982
  O        -5.9213264600       -1.2137154115       -0.8973970513
  H        -5.4072808166       -0.6487203623       -0.2578087654
  H        -5.9844724660       -2.0481095935       -0.4167640578
  O        -6.3565488536        3.5829735662        2.1963304060
  H        -5.9798677189        2.6847739152        2.4865195523
  H        -5.6565132666        4.2674953651        2.1803289446
  O         1.8097097262       -3.2964132350        6.8931724620
  H         2.1673371932       -3.8757541149        6.0838050744
  H         1.8703818626       -2.3524458659        6.5557392120
  O         5.3147215549       -6.0725087489        6.5658036933
  H         4.9282911917       -6.7379123208        7.2556383713
  H         5.8307792063       -6.6464682858        5.9285649898
  O        -0.1827580965       -1.3050273554        9.3759298216
  H        -0.7553192873       -1.1297513706       10.1288420951
  H         0.5944044472       -0.7526951034        9.4169358839
  O        -7.5467253948       -2.8513501772        3.5565457980
  H        -8.2034510093       -3.4098794454        3.9997139868
  H        -6.6682041897       -3.0701727860        3.9270037716
  O        -3.1910045201       -4.5712330567       10.8278905828
  H        -2.6912039315       -4.1111817504       11.4717508635
  H        -3.6161985171       -3.8940259617       10.2588297950
  O        -8.3296758157        0.5730563364        6.5732650386
  H        -8.3193812443        0.2560915067        5.6405145909
  H        -8.0900892450       -0.0798774086        7.2678359455
  O        -3.7767511091        1.1798817409       11.1526532572
  H        -3.4543914365        2.0454246425       11.3827504082
  H        -4.2696712784        0.8664446674       11.9276839904
  O        -3.3106677012       -4.1529184675        2.7259151012
  H        -3.5160324775       -5.0525452862        2.4432944781
  H        -2.5026690943       -4.3414153188        3.2933818142
  O        -5.7410045810        1.3241526773        3.4818903903
  H        -6.6363546052        0.9688253514        3.7464793578
  H        -5.1810781218        0.6889930407        4.0276226424
  O         7.5793674132        0.4129656539        1.0920876589
  H         7.0327178881        0.8794166251        1.8002405273
  H         8.3852432878        0.2182966168        1.6041792091
  O         4.4363623015        3.0814298741       -0.1193967475
  H         4.9777229961        3.4315244388        0.6694435489
  H         4.7915610428        3.5688429591       -0.9057834336
  O         2.8153316886       -3.6211308398       11.8103002217
  H         3.0685278849       -3.5335160376       10.8980139309
  H         3.6887416470       -3.5233271945       12.2765834765
  O         3.1206333981       -4.7728630527        5.1912399686
  H         2.8523803639       -5.3794150253        4.3717667155
  H         3.7645465482       -5.3609139069        5.6395561473
  O        -2.1440940610       -2.8927433218       13.1359426070
  H        -1.2076683406       -2.9596484263       13.4702164112
  H        -2.7638030828       -3.2803177631       13.8825183587
  O         2.4484771861       -6.6962695736        3.0076171194
  H         2.9454133694       -7.3462978682        3.6105271561
  H         3.0277032962       -6.5968294290        2.2060195404
  O        -8.7608430923       -3.2856571473       -3.5077966832
  H        -8.0603771114       -3.9801150339       -3.3146049590
  H        -9.2933478399       -3.4930436870       -4.3130419334
  O         1.8770145906        2.8289062715       13.6694360736
  H         1.3222865728        3.5413950332       13.9718223031
  H         2.6782529528        3.1993002467       13.1976656681
  O        -2.0196030649       -0.8507089719       11.1049155595
  H        -2.1861646957       -1.3781129070       11.8940289033
  H        -2.5998857049       -0.0147162077       11.2642958995
  O        -4.4037822913        5.6133611814        2.2662095109
  H        -4.2172551395        5.5512155815        1.2619149525
  H        -3.5843761868        5.2312660654        2.7235991446
  O        -0.4813134495        1.6876798046        8.5064388158
  H         0.0076977060        1.5588000953        9.3995045455
  H         0.3190385249        1.6557162579        7.9422701542
  O         4.1645110664        4.0762484473        4.2724521113
  H         4.8672476439        3.8952092261        3.6020096307
  H         4.6290343956        3.6852152044        5.0823539012
  O         1.9637469253        0.3988449948        2.5135609323
  H         1.9134068864        1.3671252808        2.2911623431
  H         1.7439743681       -0.0397866250        1.6021573057
  O        -1.4899673229        1.4198061394        4.4649332393
  H        -1.7332197067        0.9343144344        3.6953850079
  H        -0.5484367413        1.8761030871        4.2776788603
  O        -4.2052325261        5.5159684417       11.8652355956
  H        -3.9106738811        6.4380940701       11.7164109255
  H        -3.4485228226        4.9323842783       11.4634446794
  O        -6.5606022811        2.7820243358        6.0182580848
  H        -5.9033998372        2.5418317074        5.3185355828
  H        -7.0431526680        2.0329564688        6.3263828287
  O         4.1172890049        0.2467070954       -0.7799626166
  H         4.9153155164       -0.3557243870       -0.6068911488
  H         4.4101091992        1.2060392712       -0.6627271787
  O        -5.0174467457       -2.8956106649        4.7097228574
  H        -4.8363017786       -3.4503223286        5.5086465855
  H        -4.3570534956       -3.1749296952        4.0635237124
  O        -8.1057877338       -0.1311903974        3.9113295960
  H        -7.9805835051       -1.1361834586        3.8517798146
  H        -9.0300066618        0.0867295902        3.4571337101
  O        -3.3926906374        3.0451610277        5.7105962330
  H        -2.7410477241        3.3235108742        6.4126658756
  H        -2.8344667123        2.4463621532        5.1216816291
  O         0.0942477684        5.1157670745        1.8135382854
  H         0.8602764297        5.3832764109        2.3166141473
  H        -0.5726073730        4.7520393725        2.3977748708
  O        -2.6362768047       -3.0305425070        6.6227075654
  H        -3.4620529310       -2.9974911037        7.1901177561
  H        -1.8221937651       -3.2887752170        7.2527247775
  O        -3.9958058933       -2.2950003562        9.5236683915
  H        -3.1851095118       -1.7068810903        9.6138589010
  H        -4.6289724367       -1.9225828175       10.1312868631
  O       -12.9562127768       -3.8161116370        8.1643284178
  H       -12.1701282224       -3.6208691103        7.5094219382
  H       -12.9845523011       -2.9745831819        8.7343465255
  O         3.3742164632        4.2913614884        7.7895058799
  H         3.6284629323        3.4205635306        8.1791161233
  H         2.8434686772        4.7602463294        8.4689423394
  O        -2.5647995238       -0.0189595208        7.6411351880
  H        -2.2502155523       -0.8925273738        7.8212311615
  H        -1.8866396137        0.5193275551        7.9473031672
  O         3.3686299171       -6.4039574867        0.2303619276
  H         3.7503013043       -6.9989075739       -0.4576587933
  H         3.1588975837       -5.5474700181       -0.2715763194
  O       -11.1572144140       -6.1553381619       -3.3307707827
  H       -11.6024459526       -6.1765325302       -4.1873357696
  H       -11.2481381601       -5.1977190436       -3.0987594019
  O        -6.6021450174       -4.6970870130       -2.6414327170
  H        -6.5827331155       -5.6837818362       -2.4395248985
  H        -5.8162269261       -4.6338841991       -3.2719978391
  N        -5.0671462415        0.6409238959        8.5385504303
  H        -5.1737303091        1.6600533033        8.3520533910
  H        -4.2536621448        0.3514334989        7.9585878082
  H        -5.9956856617        0.1194719381        8.4738422894
  H        -4.7654401266        0.5413741331        9.5089144872
