     194
 CELL 12.4294 12.4294 12.4294 90.0 90.0 90.0 i =    39220, time =    19610.000, E =     -1097.1456078684
  O        -3.4408013396        1.7882494298        9.4920417906
  H        -3.9654404034        1.9091923544        8.5983922840
  H        -2.5108586664        2.0554153499        9.4697623339
  O         2.7809231719       -9.3607114172        5.8283144447
  H         3.5014550418       -9.4364844912        5.1522302175
  H         3.3073127781       -9.3678443599        6.6737337097
  O        -1.1718758518       -9.4644263237        8.9891487875
  H        -0.8730942582       -8.4868521761        9.1084405348
  H        -0.4319329367       -9.9848533062        9.3282483054
  O        -5.9072396598       -0.9628012342       10.7592354586
  H        -6.0697529537       -1.9386432080       10.7658529741
  H        -6.4725145129       -0.5113242824       11.3912436465
  O       -12.7766735976       -7.1263242542        9.2381869563
  H       -12.7385837456       -6.5290883355        9.9591363285
  H       -11.8644630485       -7.3096523520        8.9208859131
  O         2.7239267274       -3.5018664711       17.2886019863
  H         2.3584984942       -2.7888793390       17.8632640828
  H         2.2865836192       -3.4642940159       16.4111186000
  O         0.2278121398        3.0825763471       -0.8614398328
  H         0.8695124480        3.6056744494       -0.3039796866
  H         0.7360643029        2.8759880346       -1.6241154551
  O         1.9705672369        5.0263231189        8.1721832662
  H         2.2362909771        4.2042236539        7.6887030656
  H         1.8867610109        5.7257121535        7.4164332664
  O        -3.5923394708       -4.4685544865        3.0094803916
  H        -3.9428374297       -5.2537012318        2.5215080630
  H        -4.2892965507       -4.3679539300        3.6591104831
  O         0.1586080998       -1.0402128600        4.2756668231
  H        -0.3150022098       -1.2784587818        5.1206837440
  H         0.4269283313       -1.8938383111        3.8347434803
  O         2.0606935915       -5.0103961022        0.9378246563
  H         2.9695710156       -4.6075312023        0.8096052186
  H         2.1574570429       -5.8580074849        1.4153464349
  O        -3.6937620027        3.6694232079        5.2949424762
  H        -3.4407380807        4.2277683700        4.5374721328
  H        -2.8871366370        3.1847554354        5.5647565618
  O        -7.1407251021        0.8498049516       12.8111335866
  H        -8.0253743695        1.0589839412       12.4405804338
  H        -6.7581733924        1.7269106286       13.0533619026
  O         1.3006990442       -5.5067648886        6.0271437112
  H         1.9157259511       -4.8555289708        5.6648435418
  H         0.6779800005       -4.9339197694        6.5582126470
  O        -1.6121041710       -1.1054378459        6.4304995366
  H        -1.7365936976       -2.0518245107        6.6703742914
  H        -1.3005842559       -0.5974538063        7.2241996832
  O         3.8728276922        2.7195945132        8.3279677784
  H         4.3830912396        1.8142801672        8.2006970369
  H         4.6035513864        3.2370408942        8.8503871759
  O         2.3604780482       -1.9700220186        6.9189141602
  H         1.7010650698       -2.3043658090        7.5136897799
  H         2.0926736613       -1.0599106842        6.6712173052
  O         2.5326974270        4.1040822114       12.6332198248
  H         2.8918454453        4.7879622637       12.0213299561
  H         2.5975288259        4.4217333711       13.5598781564
  O         0.2213800527        4.8216531818        4.4349994398
  H         0.0862567294        4.3206830815        5.2559449776
  H         0.5107623222        5.6795827400        4.9156400692
  O        -4.2286461748       -8.1374994104       10.7240121286
  H        -3.4329652553       -7.7588289496       11.1965777587
  H        -4.0206192279       -9.0636194860       10.4526252217
  O         2.7974707274        1.4882281372       -0.2759928681
  H         2.3463742517        1.1421027604        0.5345763521
  H         2.8563344443        2.5044078361       -0.1553858107
  O        -2.8509397620        6.5119640701        8.3958181684
  H        -1.9365929159        6.0485251000        8.5149904902
  H        -3.4576828076        5.8396737171        8.0820713048
  O         4.2885959260       -1.7526006364       14.1845356990
  H         3.6656007531       -1.2771331667       13.5927859472
  H         4.9432035632       -0.9735756158       14.1945756438
  O        -3.6509652103       -1.8696687924        1.5110577303
  H        -3.0817433433       -1.2754664299        2.0175033563
  H        -3.6934653754       -2.7379557955        1.9914636799
  O        -4.8591337758        2.1352776046        2.9175944916
  H        -4.9993865278        1.1557572604        2.6818328034
  H        -3.9835126915        2.4714467957        3.3275268127
  O         4.8663387333       -3.6132283187        8.1176341646
  H         5.0279331093       -4.3609811189        7.4437217091
  H         4.3201891640       -2.9840953126        7.5406698561
  O         7.4823401853       -7.3373251496        7.3940105689
  H         7.0741069491       -7.9704223991        8.0611811668
  H         7.8838493972       -7.9053759940        6.6750348111
  O         2.6106337147       -1.3401089105       11.9403233098
  H         1.7347251497       -1.5335728215       12.2732738786
  H         2.4836936626       -0.4228683230       11.6916943556
  O        -5.0351200769       -3.5693662448        5.0884071518
  H        -5.7841188487       -4.2033995212        5.2789819999
  H        -4.3071549493       -3.6820263785        5.7582691176
  O        -0.0021368087       -5.3779332175       11.4385284063
  H         0.8273932851       -5.2094945744       11.9666796593
  H        -0.3638382596       -4.4459037834       11.3252949633
  O        -7.0323236457        0.0724663347        8.1030235014
  H        -6.9292587354       -0.5583427224        7.3334271984
  H        -6.8183459530       -0.3163162638        8.9666980166
  O        -1.0084517008        0.6567418651       12.8115431344
  H        -0.6086558412        1.4918695999       12.6022383035
  H        -1.5554073876        0.8328372575       13.6132915858
  O        -1.3553971995       -4.7589203340        4.2673813214
  H        -2.2411421730       -4.7484810617        3.8215599895
  H        -1.1337281195       -5.6437323969        4.6207300425
  O        -3.9308970736        0.4359147704        5.2958750427
  H        -4.6858651347       -0.2280511836        5.1267351345
  H        -3.2942752201       -0.0809070343        5.8536859151
  O        10.2274526746        0.0325556200        3.0378252023
  H         9.4187058546        0.2370717021        3.6537816959
  H        10.8583115186       -0.3725251203        3.6257886879
  O         6.3580156647        3.6782839608        0.5959387607
  H         6.8459737139        3.2097587999        1.2608637612
  H         6.9570791523        3.6921509067       -0.1955349085
  O         4.7199855389       -4.0813144103       13.1355076990
  H         5.3313576427       -3.9268791132       12.3995107107
  H         4.6293475348       -3.1540794488       13.5765023872
  O         5.7667171648       -5.3163177567        6.2286459414
  H         5.2494127961       -5.9621851579        5.5784809376
  H         6.3148164993       -5.9531873341        6.7851964620
  O         0.4369186908       -3.5542159884       15.0701804132
  H         1.0779250964       -4.0597797164       14.4871380447
  H        -0.2027326680       -4.2793255177       15.4008474985
  O         4.7469106339       -6.9224509608        4.1878124389
  H         5.0351622251       -7.8317618405        4.4359649778
  H         5.3959919845       -6.6546369387        3.4676847701
  O        -6.2452486924       -3.8005140333       -1.8081778380
  H        -5.3260119527       -4.1243035728       -1.9514968904
  H        -6.7009806057       -4.0900073003       -2.6090196834
  O         1.7787450537        0.2354840679       14.5235175463
  H         0.8180097971        0.3744829050       14.6771145032
  H         2.0401204809       -0.3595002854       15.2600428325
  O         0.0102706445       -1.9247999248       12.8328348408
  H        -0.0783135449       -2.3234100186       13.7121691931
  H        -0.1144679653       -1.0200342413       13.0611064211
  O        -2.7267043147        4.6588467735        2.4797231232
  H        -2.5898802348        4.6380907143        1.5165434339
  H        -1.8135912826        4.4336308601        2.7945384340
  O         1.5815761555        1.9137014717        9.6979344180
  H         1.9670415528        1.4856802571       10.4996412713
  H         2.3858828945        2.2668147262        9.1965656785
  O         5.5914107046        2.9811859521        4.9392343759
  H         6.3035138173        2.8211541611        4.2840962535
  H         6.0245068777        2.7541758274        5.7923494036
  O         3.9334394190       -0.2554958332        4.2927148335
  H         4.0641487578        0.7199219155        4.3016047066
  H         4.1359845805       -0.7405340113        3.4442712161
  O         1.2150800507        0.6192025344        6.0924359637
  H         1.0405088966        0.3576517397        5.1579832252
  H         1.9395762001        1.3041443991        6.0439320927
  O        -1.9783076011        4.9567406764       12.2150924917
  H        -1.4584165844        5.8343199997       12.1705340358
  H        -1.2723967573        4.2655369294       11.8835633958
  O        -5.1161323833        2.0182987344        7.4135897761
  H        -4.6840800337        1.4633024495        6.7804520746
  H        -5.7686669492        1.4343050426        7.8987554601
  O         6.7276501378       -0.5720654875        2.7866595181
  H         6.8694098131       -1.1121469964        3.5814696194
  H         7.3457349520       -1.0250767041        2.1448332830
  O        -2.5735689618       -3.6070847163        6.5108399858
  H        -2.5387674322       -4.2536767316        7.2983257250
  H        -2.0579606741       -4.0774356495        5.8018430030
  O        -6.1509508718       -1.1491867412        5.5925012085
  H        -5.9893589272       -2.1133776516        5.4151993270
  H        -6.9985685658       -0.9479197072        5.2248433433
  O        -1.1641099848        2.5156193884        6.3020374083
  H        -1.1134782237        2.8168192688        7.2402592649
  H        -0.2804799337        2.1540106261        6.1476450156
  O         2.6032373054        4.7734199727        2.7031944018
  H         3.3048145760        5.0755319494        3.3379652897
  H         1.7842690326        4.7017959927        3.2268691433
  O         0.3398138402       -3.3821331621        8.7134895504
  H        -0.4279082263       -3.4166030896        9.3090558809
  H         1.1238673180       -3.6228811570        9.2757429138
  O        -1.4395498041       -3.0460251428       10.8381790450
  H        -1.1994696451       -2.5467485680       11.6460367759
  H        -2.2300295079       -3.5294975592       11.0422293871
  O        -9.6004530768       -3.7109264391        9.9297743714
  H        -8.9620776305       -3.6154687043        9.1853623579
  H        -9.5247279293       -2.9661889176       10.5452974327
  O         5.4840964152        4.4516538789        9.5836191844
  H         6.3486594901        4.2881926717       10.0390417215
  H         4.9423247717        5.0715469804       10.1799045871
  O        -0.4833062342       -0.1327699936        8.9337660907
  H        -0.0918691491       -1.0257613199        8.9631234392
  H         0.2812740669        0.3935705924        8.8524303086
  O         6.3645908655       -5.8824705342        1.8484487015
  H         6.2105890401       -6.6595803020        1.2152675368
  H         5.8958747760       -5.0311162184        1.5051437919
  O        -9.1104735839       -6.5589381167       -1.7510209219
  H        -9.4826719970       -6.8235563608       -2.6245375793
  H        -9.2088543345       -5.5963327298       -1.7790850350
  O        -3.5385693695       -4.9072370128       -1.6786918346
  H        -3.4857194056       -5.3925966015       -0.8624759128
  H        -3.2740152922       -5.5271689048       -2.4221640812
  N        -2.8604457678       -0.4881700162       10.9307140825
  H        -3.3104959509        0.3747369633       10.4582262751
  H        -2.4250790942       -1.0876467660       10.2235703952
  H        -3.6965953762       -1.0219186552       11.3123416753
  H        -2.1133664536       -0.1914102952       11.6293475077
