     194
 CELL 12.4294 12.4294 12.4294 90.0 90.0 90.0 i =    43620, time =    21810.000, E =     -1097.1207414767
  O        -1.9938484588        2.3261291650       10.7352120982
  H        -2.3035432474        2.3429702076        9.7869865162
  H        -1.0805989983        2.1021236713       10.6227611923
  O         5.0665955109      -10.1132385924        6.8438304352
  H         4.4222552212       -9.6189431105        6.2351343182
  H         5.8755767748      -10.2064896278        6.3047816577
  O         0.9194351617       -9.9666633065       10.0990682724
  H         1.5683566372       -9.2005290112       10.0366887169
  H         1.5300763417      -10.7336791883        9.9860674689
  O        -4.5235627266       -1.4714665140       11.0838729954
  H        -4.8225829037       -2.4959455174       11.1479486953
  H        -5.1361683268       -0.9553250406       11.6435664819
  O       -10.2357504460       -7.5169446108        9.2790650350
  H        -9.8676050374       -6.8571162360        9.9248059490
  H        -9.3580657400       -7.9684094025        9.0844377963
  O         3.6446694897       -3.7051092425       18.8802759287
  H         4.1623694055       -3.6342479535       18.0729529731
  H         4.0675299305       -3.3346117536       19.6506022208
  O         1.0286771419        2.2218313770        0.6187543987
  H         1.9656944115        2.2549204442        0.9237844496
  H         1.0128026536        2.1761955358       -0.3310996639
  O         4.8603449022        3.8470929160        9.2827319818
  H         4.8103443669        2.9505320990        9.7731895930
  H         4.9606896780        3.3836672640        8.4021510925
  O        -2.8211253099       -4.1372261894        2.6146079085
  H        -3.2517056562       -4.9135565764        2.2024935519
  H        -3.0183624887       -4.2506147461        3.5767010759
  O         2.0366798585       -1.3267043067        6.3241698657
  H         1.3222865021       -1.1282168329        6.9204125945
  H         2.3408354335       -2.2463868900        6.3402071315
  O         3.4751617092       -6.1245256160        1.9434410514
  H         4.3601908259       -5.8004082764        1.6621868290
  H         3.5890124748       -6.8887950612        2.5532763297
  O        -1.4925014401        3.6328969069        5.6974324708
  H        -1.0089358825        4.2573982421        5.0776986466
  H        -1.0562473317        2.7553092702        5.8101472197
  O        -5.8885663010        0.5129382311       12.5293311948
  H        -6.5512626108        0.0775483633       13.0933845082
  H        -5.2869909192        0.9282746688       13.2290631654
  O         2.2867969197       -6.0316663193        6.7508093983
  H         3.0229077506       -5.3403773097        6.7259717304
  H         2.0337334661       -6.0064572551        7.6983850147
  O        -0.5631913515       -1.2279904052        7.9978965087
  H        -0.6584103803       -2.1227026912        7.8413196500
  H        -0.2555241430       -1.1434855745        8.9623711809
  O         4.8534806073        1.3311994069       10.6307531689
  H         5.4334848221        1.0531000345        9.8738166484
  H         5.4049570001        1.1611846812       11.4764662122
  O         4.4514030371       -1.5957890357        9.7304685470
  H         3.8658265764       -2.3674964592        9.6230973429
  H         4.2422492663       -1.0313093358        8.9635563821
  O         3.5211610874        2.6827590220       13.7761766811
  H         4.0438824117        3.2880731455       13.2081289608
  H         3.5608716708        3.0946178750       14.7055160243
  O         2.6811786072        3.8299651971        5.7293410041
  H         2.1141746034        3.1930162346        6.2109595717
  H         2.6193424541        4.6685168209        6.2618646566
  O        -2.5597416401       -8.2983390908       12.7436481497
  H        -1.6700183473       -8.1217176640       13.1641835927
  H        -2.2341124146       -8.9882019899       12.0996461754
  O         4.2458860673       -0.0097685856        1.5575144014
  H         3.7641785969       -0.5257913364        2.2823566657
  H         3.9171696719        0.9421529906        1.6706899746
  O        -0.7834783546        6.0725971412        8.8237435148
  H         0.1169933766        5.7328720621        8.8479873753
  H        -1.3421106325        5.4420121341        8.3148804638
  O         6.2220071439       -2.4839837386       14.3057120168
  H         5.4299148993       -2.2493422001       13.7496758445
  H         6.9435070539       -1.8839146871       14.0064158420
  O        -3.4053149750       -1.5300295093        2.1022569090
  H        -2.5880784174       -1.0756720399        2.0474794077
  H        -3.0644986767       -2.5375034634        2.2969150114
  O        -2.0128817387        1.7764418462        3.4550765584
  H        -1.0625531266        1.8095657537        3.1940883482
  H        -2.1110913666        2.5946272438        3.9931455691
  O         5.9348032757       -4.3843660963        8.4649480194
  H         6.5311125159       -4.8726572326        7.7792280194
  H         6.1634778788       -3.4312148414        8.3287083680
  O         9.2988458486       -7.4780023248        7.8272947838
  H         8.7113216180       -7.8668842691        8.5383451976
  H         9.5068760963       -8.0745951266        7.0690269974
  O         3.9043467696       -2.6826776454       12.5106286397
  H         3.0005860819       -2.5247458661       12.9296405688
  H         3.9867703638       -1.9859955255       11.8076253584
  O        -3.6391735611       -3.4855355429        5.7482392893
  H        -4.2174947651       -4.3042301193        5.7136153267
  H        -2.9303720620       -3.6810692377        6.5219091465
  O         1.6787917373       -6.4816212423       12.2820656394
  H         2.3776783272       -6.1018705256       12.8758392187
  H         1.0712043945       -5.7592230880       12.1073554377
  O        -5.4064182379        0.1715666103        9.1121457617
  H        -5.7320971162       -0.4644060106        8.3922529250
  H        -5.0662493457       -0.4510101841        9.8364557546
  O        -0.0581784539       -0.2203058546       14.1009994751
  H         0.2764246955        0.5032498688       13.5139370546
  H         0.2127990827        0.1580362713       14.9756329564
  O         0.2610022348       -4.9806165369        4.9247984517
  H        -0.1008588022       -5.7785716806        4.5122875437
  H         0.9727043084       -5.3304076482        5.6243166417
  O        -1.5528826069        0.5844570681        6.3661954689
  H        -2.1130118779        0.1913026730        5.6848449078
  H        -1.2094419306       -0.1880243597        6.8836151544
  O        13.2843369678        1.1505043424        4.0192075900
  H        12.8885266728        0.8981109813        4.8651796031
  H        14.2404796188        1.0505388604        4.0705562022
  O         8.7513272892        1.4782617417        1.4551030364
  H         9.3234221136        1.5472264342        2.2585368170
  H         8.8765457856        2.4048289040        1.1013081218
  O         5.8707987365       -5.2407031692       13.4057406389
  H         6.3864358597       -5.0550648909       12.5772666421
  H         5.8941343037       -4.3960683192       13.9069138556
  O         7.3943556426       -5.9005499925        6.5991513221
  H         7.1161999338       -6.6576427259        6.0560872435
  H         8.0946401931       -6.2677406959        7.1812710603
  O         2.2941955155       -3.8899218098       15.8266396048
  H         2.6608586568       -4.6920316613       15.3637065248
  H         1.4128851994       -4.1621697917       16.2118899380
  O         7.1403229709       -7.8771258776        4.3437104331
  H         7.5388872113       -8.7514127009        4.5457383848
  H         7.4768891154       -7.5495133693        3.4740904071
  O        -5.1411422268       -4.4178530287       -1.5346860248
  H        -4.2464517061       -4.7252368540       -1.5832537194
  H        -5.4992056232       -4.5216954800       -2.4589867891
  O         3.3402461945        0.0591958622       16.9214122240
  H         4.2282339983       -0.4025401148       17.0649119133
  H         2.7013055766       -0.4982654941       17.3801581680
  O         1.3926456646       -2.7531447724       13.6696149848
  H         1.7814803338       -3.2317965005       14.4833743924
  H         0.9428094210       -2.0020067156       14.0981212621
  O         0.1979253484        4.9488471699        4.0731146188
  H         0.1626438221        4.7274328317        3.0940003192
  H         1.0894788401        4.6484335588        4.4627773675
  O         2.4608584564        0.3903953787       11.4472178162
  H         2.5851577016        0.1072986476       12.3503971477
  H         3.3073467673        0.1723006237       10.9812453338
  O         7.7349402968        2.1163946663        5.6167316920
  H         8.1719146795        1.3533805610        5.1406440526
  H         8.2466118083        2.0682977942        6.4653328638
  O         5.9424936943       -1.1886605151        4.3783922682
  H         6.9330987908       -0.8447852318        4.4547011895
  H         5.9872338362       -1.7996352183        3.5619091875
  O         3.4035359969        0.3829033394        7.7232542762
  H         3.1278734468       -0.1545543754        6.9326430730
  H         4.1102492458        0.9552776122        7.3884249540
  O        -0.1358291752        4.6009453834       13.7936751124
  H         0.4760761663        5.1396273949       13.2141821279
  H         0.3218073815        3.7366972975       13.7219844515
  O        -2.9940199315        1.9111164324        8.3459916672
  H        -2.4292935355        1.3420349369        7.7566728204
  H        -3.7522459052        1.2885883749        8.5762164153
  O         8.6599447542       -0.8345990023        4.7016821696
  H         8.8455112974       -1.6788957012        5.1844629038
  H         8.6596492234       -0.9886417539        3.7454090452
  O        -1.0052351668       -3.7904108449        7.0116212428
  H        -1.1094977419       -4.5809806762        7.5658370272
  H        -0.6564611210       -4.2206516632        6.1606311229
  O        -5.8583971475       -1.8524950508        6.8525499310
  H        -5.2814924656       -2.5594220163        6.5994638964
  H        -6.3651195749       -1.6919588623        6.0152621645
  O         1.1470607321        1.9570594719        7.0489249304
  H         0.8912109378        2.1922461855        7.9593545134
  H         1.9579545798        1.3727551353        7.2587815166
  O         4.4659473611        4.2209435956        3.5603168027
  H         5.3786078376        4.3352186818        3.9747205130
  H         3.8612886368        4.0892206540        4.4184486218
  O         2.2876860455       -3.7787857492        9.2061782404
  H         1.5206836263       -3.6349743291        9.7962284105
  H         2.7263141297       -4.5662942614        9.6115414139
  O         0.2738317074       -3.8576097929       11.3591403455
  H         0.5507487854       -3.5675389843       12.2838892275
  H        -0.6248377270       -4.1461244545       11.4949768857
  O        -8.3504576940       -5.0641781320       10.7822548323
  H        -7.5742429597       -4.8863876128       10.1989252293
  H        -8.3576184729       -4.3136280559       11.4169962873
  O         7.7177029104        4.0077453677       10.0170047643
  H         6.7423081389        4.1863752982       10.1459117626
  H         8.2130582624        3.8634451790       10.9083878199
  O         0.2448009138       -1.1797166345       10.6277939238
  H         0.4106015851       -2.1048823131       11.0003556575
  H         1.1393154423       -0.7030681903       10.8385645938
  O         8.2256402621       -6.5987347017        1.8154825941
  H         8.4630685789       -7.3531822655        1.1962382935
  H         7.2675239675       -6.2700075598        1.5912243857
  O        -7.5588914547       -7.9683219520       -0.1650762873
  H        -8.1404053599       -7.3747729541       -0.6320266070
  H        -6.9100982038       -7.4738563782        0.3541707630
  O        -2.1440633224       -5.3513935845       -1.3085774561
  H        -2.3261349589       -6.0773678495       -0.6566326852
  H        -1.8651868823       -5.7658396506       -2.1463769037
  N        -2.2580467067       -0.3488536648       11.6384113858
  H        -2.4961566512        0.5063281184       11.0947822611
  H        -1.4375223724       -0.7631681734       11.1883702383
  H        -3.0142937995       -0.9954408054       11.6934675797
  H        -1.8536234326       -0.0768966423       12.5512431578
