     194
 CELL 12.4294 12.4294 12.4294 90.0 90.0 90.0 i =    85620, time =    42810.000, E =     -1097.1019770142
  O        16.8708045022        0.5249446886       12.6768622157
  H        17.2914482194       -0.3765122602       12.7818192693
  H        17.6235273185        1.0848929647       12.4377104677
  O        22.6405828054      -10.9305620596        8.8809188097
  H        21.7956953800      -10.8765576463        9.3850329884
  H        23.0231966958      -11.8083569573        9.0440979914
  O        19.8022763972      -12.1121749225       12.5531191523
  H        19.9515999749      -11.9605696824       13.5327528935
  H        20.4222857757      -12.8974196328       12.3213380790
  O        14.8712186147       -2.7661846517       13.4111028311
  H        15.0987897857       -3.5163829623       14.0374044844
  H        14.4367759335       -2.0597221233       13.9568870330
  O         8.6634255197       -9.3018262287       13.6758389371
  H         8.9248531749       -9.5867826440       14.6092779317
  H         9.1885584947       -9.8895298442       13.0766228484
  O        26.6403593751       -6.2769086190       24.4196174630
  H        27.6052847621       -6.5168479395       24.3561732928
  H        26.2983765972       -6.5630493569       23.5562712035
  O        20.1818116731        0.3210305616        2.9582088028
  H        19.5934463711        0.9583805501        3.4583176739
  H        21.0517988398        0.5200865301        3.3684090357
  O        23.3436835502        2.6688711480       11.7305031594
  H        23.4011411902        1.9463671186       11.0595437967
  H        23.4990714473        3.4953260196       11.2738394560
  O        16.1096639299       -6.8264801421        3.4485786688
  H        16.3006155639       -7.0967495043        2.5035974092
  H        15.5908500796       -7.6240145143        3.7208220776
  O        19.2937380396       -3.2097921673       10.3681326123
  H        19.1529581240       -4.1955213140       10.5791042625
  H        20.1238074061       -3.1328304077        9.8632925988
  O        20.4498513763       -8.5378604438        5.0265643665
  H        21.3165452438       -7.9846216067        4.8906368291
  H        20.7119493102       -9.2592578004        5.6126123696
  O        15.9417418470        0.4808483553       10.0656020564
  H        15.7617136168       -0.4214390081        9.7823790540
  H        16.3078867220        0.4289365111       11.0346543116
  O        12.6229730463       -1.0355335014       14.2308056027
  H        11.8615081909       -1.4000254885       14.7746026134
  H        12.4877504360       -0.1048751564       14.1699477477
  O        23.3093674895       -7.3183857144       11.1294518444
  H        23.0722038412       -6.8268463647       10.3100280708
  H        23.6630472447       -6.7632562537       11.7848387293
  O        17.5277129885       -2.3262349027       12.6132383712
  H        17.7091126790       -2.4264055525       11.6763977075
  H        16.5768303612       -2.4277359095       12.8478048379
  O        24.0929407075       -2.1935949994       11.9378735633
  H        24.8081446443       -2.8094409537       11.6466141748
  H        24.4802065872       -1.7278210815       12.7577852574
  O        24.2693609593       -5.5328975728       13.2027535812
  H        25.1748348613       -5.4297139042       12.7949144121
  H        24.1513297174       -4.7910293808       13.8310927156
  O        22.6036856357        2.1560961096       15.6961954487
  H        22.5075014165        2.0459179483       16.6874110212
  H        23.5310669500        2.4635863827       15.6445166362
  O        20.5876148837        4.8621176559       10.5000103796
  H        20.4896559088        3.8723212634       10.2544965125
  H        21.3836465619        4.9023523570       11.0918602708
  O        16.0546592296      -10.3226488558       14.8156075703
  H        16.1762670447      -10.7859080632       13.9758664745
  H        15.3613902576       -9.5772199886       14.6755605693
  O        23.0767707933       -1.6859670799        3.6934371742
  H        22.0846389826       -1.7767368594        3.8438295938
  H        23.4779633639       -1.0196228273        4.3130284598
  O        18.3152814735        3.2632452082       12.5038305396
  H        19.0387881576        3.0914497664       13.1648040635
  H        18.7582970344        3.0642279140       11.6589079233
  O        25.4428203482       -1.5390478235       19.5094640585
  H        26.1158189545       -1.5823887449       20.2780307809
  H        25.3400094547       -2.4938039669       19.2541371777
  O        16.9788625312       -1.7834114163        3.9189519231
  H        16.3374779529       -1.0063363981        4.2180650263
  H        16.3825629904       -2.5592704598        3.8111679849
  O        18.9814164706       -2.1289735958        6.0796538691
  H        18.4385666563       -2.4625535194        6.8960585849
  H        18.2884030860       -1.7067029741        5.4754480304
  O        23.8399883926       -8.0580620871       14.5893061603
  H        23.9537376240       -7.0545892097       14.2780382764
  H        23.1393936107       -8.3857557707       14.0270580210
  O        26.4594538218      -10.2747557243       10.2326446650
  H        26.3518093487      -10.5668911501       11.1744869406
  H        27.3307304723      -10.7135118435        9.9478549879
  O        25.1031957234       -4.4564453050       19.6366743268
  H        25.9219440966       -5.0678049893       19.6373053585
  H        24.5447187924       -4.9095657770       18.9793974149
  O        14.7307768493       -6.2800593993        7.2828905034
  H        14.5050833122       -6.9301982675        8.0508764037
  H        15.6798519558       -5.9648469745        7.3560077976
  O        18.4807903907      -10.1024501920       16.2497966148
  H        19.1872023455       -9.4215439031       16.2467075709
  H        17.9280451205       -9.7830791432       15.5248964309
  O        13.8422104573       -3.4299852577       10.9740785889
  H        13.8968164445       -4.4648211761       11.0290105345
  H        14.1175657434       -3.2202529888       11.8940322342
  O        20.1217765804       -0.3438134275       20.1732279023
  H        19.6220347043       -0.9362187672       19.5199393233
  H        19.3847322341        0.2470143158       20.4481150728
  O        18.5523965160       -5.8607330698       10.7748466031
  H        19.2508188428       -6.5455317037       10.7628699200
  H        18.1772026371       -5.7996485736       11.6701806285
  O        17.7261736576       -3.1437967878        8.1661572593
  H        17.7478404247       -4.0967227028        8.1602995367
  H        18.2420362690       -3.0018304716        8.9768817920
  O        30.4566023347        1.5214464488        8.6640906976
  H        29.9059985410        1.9467154875        7.9266205848
  H        29.7869806237        1.3440666329        9.4146058938
  O        24.7202895714        3.0302922520        5.4016022458
  H        24.3233998957        3.3879066117        6.2457888007
  H        24.7197225916        1.9935209835        5.4279608780
  O        24.5714129162       -4.1057008565       15.8955204478
  H        24.1800659287       -4.8201956239       16.5075364200
  H        24.1824497420       -3.2432094738       16.1804817620
  O        26.0152330694       -7.6153772556        9.4991554363
  H        25.0637753731       -7.7842928416        9.2073168784
  H        26.3242981185       -8.4939077574        9.8678354953
  O        20.7869573514       -6.5729363914       19.9913246696
  H        20.6655774678       -6.9221226121       20.8741787614
  H        20.5099603653       -7.2805305950       19.2892519200
  O        23.5984895147       -8.2787906201        8.0334526585
  H        23.2375719317       -9.1418549623        8.3489635945
  H        22.8267776183       -7.6864884352        7.7838092306
  O        15.0369978600       -4.2734588795        3.1760074020
  H        15.5126911879       -5.0857252133        3.5259383512
  H        14.1151695008       -4.2928427799        3.5550074009
  O        21.4187039017       -2.4858146676       21.1946643843
  H        22.2765852743       -2.1247987286       21.4118415439
  H        20.9382044050       -1.7006646220       20.8828949842
  O        22.4790233745       -4.3942481179       19.1257664256
  H        21.9373962934       -5.0868078901       19.6167218058
  H        22.3316393466       -3.6550129366       19.7432396500
  O        16.6635642624        2.5601605519        6.3387216786
  H        17.0942280456        2.1605486046        5.5541035539
  H        15.9458419487        3.0278304884        5.8049072697
  O        20.8304876117       -3.0889038587       16.9172985172
  H        21.4870253460       -3.5674194208       17.4647877198
  H        20.1348500418       -2.8103613393       17.5308648425
  O        24.7993281620       -0.1279795741        5.0201382016
  H        25.5245243588       -0.1174033368        4.3900763117
  H        25.2787590277       -0.4892298408        5.8339394447
  O        23.7384795146       -0.8441482173        9.2330178288
  H        24.0952137921       -1.1141871145       10.1069586192
  H        24.3041740668       -1.2731613809        8.5432732670
  O        21.2977594176       -1.7922156428       12.3166472649
  H        20.9214634876       -2.2445757377       11.5575766316
  H        22.2627012646       -1.9546989351       12.3168764821
  O        15.4135486494        0.3795810221       17.0848360703
  H        15.5705791729        0.9184157602       16.2240493891
  H        15.5078700197        0.8750992396       17.8886770735
  O        14.8742361794       -1.9300495262        8.9393618312
  H        15.7215658861       -2.2724343958        8.6635781001
  H        14.6194087029       -2.4128347388        9.7796941439
  O        29.9542881673       -5.9694935752        7.6442367996
  H        30.2354372832       -6.1589959336        6.7219894120
  H        30.1613228949       -6.7476416323        8.1549239457
  O        17.0950689196       -7.9248093002        9.8783870734
  H        16.1744114044       -8.0105987480        9.6214245152
  H        17.3181704334       -7.0078851008       10.2991751718
  O        10.6259653390       -5.3016416032        9.4214338004
  H        11.4245796978       -4.9569180460        8.9704432886
  H        10.0739831714       -4.5454336774        9.5971092352
  O        20.3976003857        2.1849843480       10.3835966049
  H        19.6175077369        1.9111164746        9.7621403369
  H        20.2170641605        1.5857542585       11.1724714879
  O        21.7974374058        1.3235537029        5.9742389804
  H        21.1498191782        0.7491873457        6.4961113691
  H        22.5737250117        1.5187496018        6.5870899596
  O        19.5437064624       -6.3820262575       13.6385443630
  H        19.8138738023       -6.1604728169       14.5598416125
  H        19.9532643949       -7.2705123901       13.5808081225
  O        18.1565308740       -6.7440865208       17.5414793086
  H        18.6873151784       -7.5864193622       17.7183094380
  H        17.3820439500       -6.9489191517       16.8997604127
  O         9.8508845510       -6.9541401159       16.8153240733
  H         9.0480643933       -6.3638492373       16.6992165017
  H        10.2551531306       -7.2955638680       15.9816811823
  O        25.0783709029        1.6303538898       13.4614224552
  H        24.4930261173        2.1716373170       12.7675733822
  H        25.8506250126        2.1315976432       13.7458149859
  O        20.0488097440       -5.6898533909       16.1889413445
  H        19.2462263120       -6.1265154877       16.6454240188
  H        20.1955343684       -4.7830209344       16.4718294706
  O        27.2583541265       -8.4094956887        4.9092105080
  H        26.3097676214       -8.7775192330        4.9703424921
  H        27.2260430644       -7.5278521977        5.3257277644
  O        14.2405680798       -8.3889537376        1.9211998246
  H        14.5913784339       -7.9127688041        1.1297092122
  H        13.2568982179       -8.3131398926        1.8750383730
  O        16.7948668381       -7.0979775023        0.7353776506
  H        17.1542485633       -7.9934452917        0.3610148866
  H        17.6885340869       -6.8068146149        1.0494160527
  N        19.2515314178       -2.2258051799       14.8388997053
  H        18.3030634871       -2.0139612467       15.2933701710
  H        19.0772454984       -2.3939138657       13.8018940883
  H        19.7083067602       -3.0731842335       15.1337236223
  H        19.8356528452       -1.3274475727       14.9310536560
