     194
 CELL 12.4294 12.4294 12.4294 90.0 90.0 90.0 i =    82420, time =    41210.000, E =     -1097.1454848496
  O        16.1329261605        1.0773489621       12.4320430757
  H        16.3295374578        0.1265677414       12.2963340653
  H        16.8606776946        1.4331356877       12.9939084767
  O        21.3616270192      -10.8072442379        9.6150246684
  H        20.5265102126      -10.5811505202       10.0420378215
  H        21.6452608214      -11.7275085805        9.8630249138
  O        18.9275040953       -9.9926235494       11.2753262485
  H        19.3669343775       -9.6049716158       12.0475754559
  H        19.0828883523      -10.9968647677       11.2773916465
  O        13.8691279631       -3.0861029961       13.2613124068
  H        13.6606557151       -3.7404415344       13.9972972260
  H        13.1873276958       -2.3474298554       13.4076002873
  O         8.1005367759       -8.2008620243       13.2211104903
  H         8.6767864134       -8.4740134869       13.9500656122
  H         8.8308483697       -8.0033833577       12.5954964416
  O        25.3645933603       -6.8377142916       24.3336143766
  H        25.2653387217       -5.8958938044       24.0005017589
  H        25.7057832248       -7.3499822826       23.5810467542
  O        18.2193859217       -0.1045859798        2.6311150499
  H        17.9079583075        0.8239518848        2.8672106828
  H        19.0566750233        0.0833264251        2.1202740346
  O        22.8149126932        3.5688941992       11.5814643018
  H        22.3872371180        2.8645583543       11.0108045802
  H        23.3323359963        4.1526343209       11.1037075338
  O        15.6700195221       -7.0605740305        3.2981684022
  H        15.7171330442       -7.7272499164        2.5834393506
  H        15.1601843348       -7.4786854123        4.0576158688
  O        18.7161113175       -2.2870263467       10.3810246912
  H        18.7089446901       -3.2210603006       10.7479229998
  H        19.1296482733       -2.2643835477        9.4342216415
  O        19.9512632144       -8.1848629023        4.4409843537
  H        20.6685549903       -7.8265022130        3.8497671837
  H        20.1964748386       -9.1119318418        4.6237986432
  O        15.1009684211        0.3310545800        9.4984548321
  H        14.7037329229       -0.5423551112        9.3045187330
  H        15.8534121170        0.2546637852       10.1577073240
  O        11.7942400895       -1.0485718062       13.3282061700
  H        11.3378973370       -1.3152331491       14.1630514462
  H        11.7643341200       -0.0624590918       13.3909140685
  O        21.4782677062       -6.0588606587       10.9540443703
  H        22.1551380539       -5.4622051798       10.6045550270
  H        21.3974057914       -5.8872829439       11.9855638869
  O        16.2916510874       -1.7330530395       11.4348570509
  H        17.0951909533       -1.9825346499       10.9233981466
  H        15.5571841912       -2.1440287255       10.9372056604
  O        22.0742611182       -2.2995253324       12.0382787240
  H        22.6145741329       -2.9001682234       11.5272910294
  H        22.8129468907       -1.7982568399       12.5521777525
  O        21.5086291548       -4.9989194503       13.3203775907
  H        21.1050008710       -4.9760615788       14.2180939220
  H        21.7518372138       -4.0924003112       13.0133026814
  O        20.9024707160        0.8584497540       14.4921309857
  H        20.6750800035        1.0812319881       15.4233997245
  H        20.9932717592        1.7384937509       13.9983409563
  O        19.6286416333        5.7488246251        9.0813675450
  H        19.0860980552        4.9463937442        9.2247133382
  H        20.3309917876        5.8618096897        9.8320790710
  O        14.3455948631      -10.8103793369       14.4443499367
  H        14.9104188729      -11.0089805269       13.5666133151
  H        13.4658189767      -10.4500308607       14.1434437345
  O        22.7214952415       -1.7628707043        3.3140277624
  H        21.7854180508       -1.5655956901        3.2324065208
  H        23.0136012900       -1.1463174887        4.0379065597
  O        15.3676571114        3.9301308326       10.8804956267
  H        15.9581025169        3.7660454904       10.0903222377
  H        14.5180302243        3.3583927241       10.7541928430
  O        23.9642688515       -1.9892152753       20.2075284934
  H        24.8552869859       -2.0421607211       20.6469486698
  H        23.8840289025       -3.0064135100       20.1095983857
  O        15.1890451098       -2.5916926287        4.2610262692
  H        14.6966805092       -1.7547855772        4.3886911294
  H        14.5181423805       -3.3007634685        4.1212140772
  O        17.5253997870       -2.8221266277        5.3883695485
  H        17.4822960097       -3.1821636243        6.3303174212
  H        16.6374599503       -2.7156044296        5.0824924469
  O        23.8930471873       -6.4667788661       14.1839334983
  H        24.3993295828       -6.8240283591       13.4053696240
  H        23.1465563718       -6.0034293516       13.8189635685
  O        25.8352591746      -10.6288896025       10.7888286975
  H        25.3538239558      -11.0316272375       11.5928610798
  H        26.4128711446      -11.3756612978       10.3656495067
  O        23.7548630089       -4.8728055877       20.1582079035
  H        24.6493151670       -5.2924247088       19.9041287514
  H        22.9856863598       -5.5154798113       19.9325732010
  O        13.5454853363       -6.6801746244        7.3952216836
  H        13.4721641457       -7.2730744125        8.1685184573
  H        14.5406382847       -6.3972371837        7.3995551874
  O        17.1784922893      -10.0020346891       15.7645080958
  H        18.0999709026       -9.7355920747       15.9356701311
  H        16.8560614394       -9.4287615690       14.9744971844
  O        13.6013020903       -4.0454537909       10.6278603737
  H        14.3540209615       -4.7717842098       10.3602382253
  H        13.7134267475       -3.7833175716       11.6145187224
  O        18.7838688873       -0.4111614668       18.5029214520
  H        18.2633686035       -1.2421303766       18.1960419537
  H        18.0668995178        0.2312922827       18.8640341505
  O        17.9089346033       -5.0799121813       11.0666702779
  H        18.6184327877       -5.3528606713       10.4756124817
  H        18.0795092222       -5.4167458733       11.9943271466
  O        16.3368120262       -3.5150330370        8.1900830756
  H        16.0586923042       -4.4161779381        8.1423593326
  H        16.9959130179       -3.5590426404        8.8923654581
  O        29.3483660834        1.4259499909        7.4893365665
  H        28.8464288439        1.7995680687        6.7466625149
  H        28.5594969734        1.0791402897        8.0120540393
  O        22.7603632453        1.9517440470        5.1745760067
  H        22.9674134244        2.3121857952        6.0775528237
  H        23.0741718302        0.9996849787        5.2734895722
  O        23.4468903652       -4.1737789915       16.7629376900
  H        24.3689710002       -4.3847196900       16.5700801803
  H        23.2433324326       -3.2917070825       16.3175170791
  O        25.1026912304       -8.7048771540        9.3480554178
  H        24.4830777934       -8.8404828426        8.5902344922
  H        25.0483549010       -9.5164223820        9.8772051122
  O        21.6869320579       -6.6661145516       19.6193625430
  H        20.9358257315       -6.7742287010       20.2809019568
  H        21.2921503809       -6.7324318748       18.7369981919
  O        23.0890362319       -9.4264538866        7.7406105874
  H        22.4329131561       -9.9773628168        8.2629201560
  H        22.6232514701       -8.5723318719        7.5031784149
  O        13.6383086867       -5.0972322301        2.5235969970
  H        14.2808274553       -5.7759494417        2.5693801153
  H        12.7828616750       -5.5561099972        2.3875192183
  O        19.9767412268       -1.8899007475       20.3908422355
  H        20.7717566938       -1.7063844137       20.9726029100
  H        19.7035801697       -1.0617069876       19.8677837160
  O        21.1850129483       -3.1394843591       18.2819765300
  H        22.1384454301       -3.2482413325       18.4627653896
  H        20.6693373232       -2.8359883117       19.0344984728
  O        15.2780224083        2.0293564041        5.2228580233
  H        15.8888039570        2.2106817597        4.4600187093
  H        14.6962864923        2.8214455180        5.2106225896
  O        19.9782963744       -2.2451062340       16.0323662282
  H        20.3097628317       -2.4470305828       16.9714954932
  H        19.3081049915       -1.5753874148       16.1860841185
  O        23.8486163049       -0.4923879207        5.2878464503
  H        24.7850623087       -0.3993868515        4.9584915960
  H        23.8899462468       -1.0967355836        6.0939603682
  O        22.2406207962       -0.9563399001        9.6187852044
  H        22.1096586686       -1.5598654149       10.3585606136
  H        22.9427929985       -1.3197670158        9.0116035406
  O        19.2718511277       -0.2528911509       11.8618647609
  H        19.2839263602       -0.9466046709       11.2289518918
  H        20.0378038333       -0.4053788245       12.4807273088
  O        13.9772184292       -0.1906540607       16.6634872216
  H        13.7879548971        0.2097772755       15.7706437722
  H        14.5577667200        0.5275553300       17.0185592445
  O        14.0561188226       -2.1873347262        8.6589693932
  H        14.9342550811       -2.6947071164        8.4263287801
  H        13.7856139546       -2.6619103571        9.4661592378
  O        28.8127625688       -6.3797327026        6.9778561893
  H        29.4539015258       -6.1627073792        6.1926156095
  H        29.3229428092       -7.0111720656        7.5263699998
  O        15.4196464041       -5.8236952478       10.3797233752
  H        15.2586931288       -6.7054291529       10.8209522904
  H        16.3886225615       -5.5260174060       10.5397427545
  O        11.0364369311       -3.7717816627       10.3080820965
  H        10.8826827303       -4.2598767532        9.4463406072
  H        12.0297178230       -3.9972435198       10.4282908753
  O        17.4663388783        3.8110518389        9.2655342235
  H        17.4315308176        3.0890285849        8.5971866462
  H        17.8464292223        3.3012187980       10.0669280743
  O        20.2127406702        1.3507820665        4.5439214221
  H        19.7277027782        0.6824893428        5.1383027611
  H        21.0921068299        1.3433995962        5.0176761964
  O        18.3114438230       -6.4251900791       13.2994380338
  H        18.3775102763       -5.8632787258       14.1456657492
  H        19.2627663211       -6.8687055019       13.2406873854
  O        17.9047666616       -6.2628317965       17.1825779796
  H        18.6456194953       -6.9427939244       17.2241628909
  H        17.1926513477       -6.6740107498       16.6764705397
  O         8.9288118974       -5.7182931288       15.9945095752
  H         8.5228072622       -4.9573788382       16.5320849462
  H         9.8649416689       -5.5857281193       16.1256016499
  O        24.1048134912        1.8557143833       13.3760263117
  H        23.7295561155        2.3202749215       12.6014014580
  H        23.5748946457        2.1647562545       14.1450799862
  O        18.3972700062       -4.2059578804       15.2073277590
  H        18.0647224522       -4.6676678739       16.0303490082
  H        19.1015939704       -3.5692383255       15.5890607219
  O        26.1920612691       -7.8585158722        4.9997521672
  H        25.3199683000       -8.1422012313        4.6433368945
  H        26.0703717513       -7.4679796492        5.8944171498
  O        10.3322267689       -8.9181724573        2.7926042351
  H        10.7261975974       -7.9729314971        2.7620679743
  H        10.3385898628       -9.2420774048        3.6892641092
  O        16.6331228286       -8.4812064573        0.9483019394
  H        16.1421301422       -8.7332522958        0.1573872023
  H        17.2207249499       -7.7088853225        0.6600172620
  N        16.6884238271       -2.2030809255       14.1844047396
  H        15.8741284973       -2.1275625042       14.7813474357
  H        16.3879284902       -2.2881530190       13.1622142447
  H        17.3366785172       -2.9453162835       14.5349338934
  H        17.1632248074       -1.2731680310       14.3950998825
