     194
 CELL 12.4294 12.4294 12.4294 90.0 90.0 90.0 i =    84420, time =    42210.000, E =     -1097.1112151808
  O        16.9764112577        0.9568086737       12.5735260837
  H        17.7088050314        1.1928134045       13.1012563051
  H        16.7275830487        1.7695566479       12.0823295706
  O        21.8767944288      -11.1423378044        9.2949133689
  H        20.9864271748      -11.5173555279        9.3709108529
  H        22.4284062380      -11.9440231487        9.4026007066
  O        19.4959994452      -11.2473289139       11.2578812593
  H        19.5148458349      -10.7033334396       12.0350759758
  H        19.6480157569      -12.1885317049       11.5425456048
  O        14.4393284296       -3.0953419074       13.2422792235
  H        14.5324049339       -3.5785317120       14.1107456198
  H        13.8951895739       -2.2624584316       13.4596318884
  O         8.4233721111       -9.0560424255       13.6019545547
  H         8.4388706388       -9.4935653555       14.4742177062
  H         9.0258146808       -9.5145678056       12.9629575043
  O        26.1322943137       -8.1052905815       24.4063949412
  H        25.6859479346       -8.6859110063       25.0440914595
  H        25.5539655952       -8.2233488541       23.6029668847
  O        18.6904591123        0.8130644257        2.2028442225
  H        18.3890010027        1.4543483632        2.8590083353
  H        19.6183011971        0.7481299922        2.3814782296
  O        22.6590991259        2.9116713351       11.5373780430
  H        22.2307750918        2.5072499136       10.7457416445
  H        22.6744241866        3.8864807843       11.3999349802
  O        15.4725855181       -6.5724841349        3.6289041436
  H        15.7007628075       -7.2021232242        2.8893990287
  H        14.9297064012       -7.0405663806        4.2609200732
  O        19.4244589381       -3.1365796385       10.0207338914
  H        19.4667825381       -4.1322013191       10.2187630608
  H        20.0262505341       -2.9315523100        9.2227967331
  O        19.9845476735       -8.3692380829        4.2234507430
  H        20.6043607175       -7.7567861718        3.7141710410
  H        20.4576199166       -9.0707091481        4.7295630790
  O        16.2043519811        0.0386855438        9.9362782582
  H        15.8387465326       -0.8594565116        9.7120789768
  H        16.8034667861       -0.1768509212       10.6770834768
  O        12.5075139162       -1.0283467007       13.5254785130
  H        12.2893432068       -1.0162828143       14.4832725040
  H        12.6244568626       -0.0902028899       13.3082085786
  O        22.4283307648       -6.8100283302       11.2779146497
  H        22.9388449402       -6.0917326154       10.8815977840
  H        21.8386682226       -6.3702477619       11.8515506974
  O        16.9602029785       -2.5250569234       11.7332941396
  H        17.5156696958       -2.8613925694       10.9993701713
  H        16.3361188610       -3.2455020363       11.8478763119
  O        22.8890425282       -2.2314963223       12.1893691389
  H        23.0716020272       -3.1956023407       12.1911053274
  H        23.5370955709       -1.8556619962       12.8521800867
  O        23.9339537532       -4.7689647114       12.9346553399
  H        24.8086058296       -4.8952487963       12.4867965970
  H        24.1252185459       -4.3404320713       13.7778617581
  O        21.1537481760        1.2910342235       15.7237593967
  H        21.0626401242        1.3782739975       16.7163503528
  H        22.0808700384        1.7015152918       15.5668830851
  O        20.7745708816        4.9958930240        8.7474018429
  H        20.0149126152        4.3444282643        8.8094152535
  H        21.2833903333        4.8884273259        9.6128082294
  O        15.1396711417      -10.9694557873       14.5055775727
  H        15.9212758733      -11.1744474558       13.8678760008
  H        14.3624442104      -10.8217347641       13.9334612845
  O        23.5053355042       -1.0821971876        3.6176718112
  H        22.5591272383       -1.0589055691        3.4610802680
  H        23.8214969061       -0.7232980424        4.5088193590
  O        16.2801395304        3.5806390919       11.2416499041
  H        17.0369524055        3.2684738964       10.6591085691
  H        15.4799427035        3.1981304261       10.8580076578
  O        24.8456507943       -2.0974893063       20.2813024944
  H        25.7453469885       -2.0836543877       20.6923191781
  H        24.8337528017       -2.9457070889       19.8291250698
  O        16.2962299711       -2.0177030502        4.1696372381
  H        15.6455515855       -1.1952747494        4.4195723479
  H        15.6744476682       -2.8606709972        4.1700573192
  O        18.2480054210       -1.8926030934        5.9785137737
  H        17.8615577656       -2.5075702362        6.6603051694
  H        17.6737209244       -1.6909417703        5.2132842505
  O        23.3753827774       -7.1655988640       14.1369057933
  H        23.4631635079       -6.3091521732       13.6235556567
  H        22.6278840433       -7.4851073256       13.6053478010
  O        26.3871313195      -10.7797557511       10.6757129062
  H        25.9944846703      -11.0780334000       11.5271537447
  H        27.0800017240      -11.3874751043       10.4284216143
  O        25.2196721602       -4.8088006359       20.2201345897
  H        25.9546476636       -5.3448864416       20.5084904210
  H        24.8830278827       -5.2612474761       19.4301528499
  O        14.7195672335       -6.7399258687        8.4198475809
  H        14.0868862946       -7.4779790816        8.8016053698
  H        15.4715166242       -6.7219492060        9.0984721321
  O        17.5399645285       -9.5099644090       16.0073737915
  H        18.5264563948       -9.1508181626       16.1686989233
  H        17.1773094461       -9.0190573439       15.2616616052
  O        13.6997771479       -4.1701792771       10.9054984902
  H        14.4814724144       -4.7176180206       10.9223074389
  H        13.8905470699       -3.5333010633       11.6099027474
  O        19.9272852168       -0.0312979077       19.4140372543
  H        19.4803810334       -0.6124910197       18.7798814034
  H        19.2628293415        0.2686532935       20.0312381514
  O        19.1606190894       -5.7980027654       10.7174226050
  H        19.8356644944       -6.2834639102       10.1490185230
  H        19.2920255978       -6.1594129241       11.6046896878
  O        17.1047695759       -3.5003847060        8.1503920582
  H        17.3093910664       -4.4568000377        7.8368178351
  H        17.8061162113       -3.3194908235        8.8077707785
  O        30.1430404655        1.0296253411        7.8573086118
  H        29.6224120820        1.4905741506        7.1228239579
  H        29.5399935803        0.5948044156        8.5345902457
  O        24.5759957028        2.6791453121        5.6309790029
  H        23.9709162483        2.9503765097        6.4018854743
  H        24.6099102824        1.7125631477        5.6331028169
  O        23.8673198790       -3.8318382461       15.7668523341
  H        23.5098262721       -4.5258784745       16.4094257269
  H        23.6950460618       -2.8890106392       16.0994860547
  O        25.0762326119       -8.4682994694        9.3569500359
  H        24.3531397925       -8.4547208293        8.7128385601
  H        25.3445423945       -9.4036361771        9.4618492375
  O        21.7539617681       -6.2168840996       18.7787470573
  H        21.3923415623       -6.8362837971       19.3868203554
  H        21.6367488493       -6.6169186495       17.8976032784
  O        23.0180774928       -9.0933026521        7.8218510420
  H        22.6825132513       -9.8960625841        8.3381678125
  H        22.3519081308       -8.3652349314        7.9317149743
  O        14.2879598628       -4.0270560376        3.3625566812
  H        14.5842750447       -4.9943221750        3.3536472068
  H        13.2291784902       -4.0898871712        3.4343222587
  O        21.4500993028       -2.2590397877       20.3299535523
  H        21.9920478584       -1.8868936150       21.0787139739
  H        20.8778913633       -1.5476123042       19.9285622053
  O        22.9336672073       -3.9095639826       18.5422910395
  H        22.3521808225       -4.6653862680       18.7982742327
  H        22.7228795360       -3.2159743931       19.2772587714
  O        16.1788863443        2.2208859109        5.8271853954
  H        16.6036646386        2.4909359632        4.9256891504
  H        15.5674612707        2.9297279938        6.0620739332
  O        20.7825626324       -2.6392619199       17.1789692523
  H        21.3467464021       -3.0220590339       17.9193549951
  H        19.8752692531       -2.3316619022       17.5798613215
  O        24.7253646185       -0.0746446116        5.7119532073
  H        25.7249533230       -0.0334827114        5.4162797666
  H        24.8794250630       -0.6852178287        6.5641454477
  O        23.1788570158       -1.0699226877        9.6579918915
  H        23.1585748542       -1.4644151004       10.5320409594
  H        23.8820029983       -1.4593112596        9.0763196124
  O        20.2128936538       -1.3203184918       11.7791831609
  H        19.9762738913       -2.0664084735       11.1242086157
  H        21.1014006661       -1.5266344428       12.1734442593
  O        14.7270436541        0.1063499028       16.9914713824
  H        14.8861505091        0.5004170422       16.0718363639
  H        15.2943277470        0.7459554953       17.6005495958
  O        14.7088106318       -2.0746584157        9.3656337235
  H        15.5225909878       -2.4746716696        8.8104741052
  H        14.3715971022       -2.8788618388        9.8199737922
  O        30.2420467365       -5.8188142833        7.0885825069
  H        30.0929307440       -5.8375408494        6.0953316316
  H        31.1711914585       -6.1279300715        7.2219483554
  O        16.2977464476       -5.7390943343       10.8478102507
  H        16.5677005563       -6.6311556242       11.0873824934
  H        17.1950713252       -5.5076119565       10.4788936503
  O        10.8051974077       -4.5621738832        9.8889566175
  H        11.2681183757       -4.6554934443        9.0532571527
  H        11.4837066078       -4.0738397568       10.3840163237
  O        18.6472727448        2.9671951655        9.3795609504
  H        18.2669311457        2.2344774245        8.7638278887
  H        18.9956036135        2.4113932332       10.1009369802
  O        21.2276276885        2.3903041594        5.8841988266
  H        20.8032361456        1.6834587295        6.3967663134
  H        21.9333085810        2.7439600195        6.5093620147
  O        19.1621289327       -6.9820760700       13.2041517799
  H        19.3753432949       -6.2815707280       13.8716380123
  H        19.7375105723       -7.7307138863       13.3841819253
  O        18.0665445734       -6.2307028789       16.8381803921
  H        18.5074148942       -7.0876005620       16.7299180595
  H        17.0809525835       -6.3864200655       16.6233691419
  O         9.1325402665       -6.4228357723       16.0614649964
  H         8.4966341316       -5.7277732104       15.6583949512
  H         9.8618413029       -6.3813039689       15.4027164257
  O        24.6880513620        2.1459394910       13.2348007204
  H        24.0139451909        2.3261179194       12.5176829656
  H        24.1581760441        2.3759712531       14.0553654238
  O        19.6576694686       -4.7188255446       15.2921720275
  H        19.0399492521       -5.2044069352       15.9338476714
  H        20.0851882180       -4.0642321169       15.9528541831
  O        26.9101188519       -8.0411445184        5.6223569816
  H        26.0905885943       -8.6102445596        5.7019458698
  H        26.9924362123       -7.5096067010        6.4160310757
  O        11.0370981044       -9.5254918376        3.3488124871
  H        11.3555708640       -8.6567144329        3.0334291201
  H        11.3613273208       -9.5329350179        4.2892888402
  O        16.6398779589       -8.0347009823        1.5453384188
  H        16.1857371293       -8.2816627899        0.7241395108
  H        17.3999186900       -7.4967736488        1.1632452319
  N        18.0519148127       -2.2748097875       14.2196890740
  H        17.2489639822       -2.2462069659       14.9167470717
  H        17.8512139072       -2.3502711617       13.1578428022
  H        18.5465944999       -3.1859602002       14.3506480154
  H        18.5844136618       -1.3756558087       14.4071243010
