     194
 CELL 12.4294 12.4294 12.4294 90.0 90.0 90.0 i =   101620, time =    50810.000, E =     -1097.1279203413
  O        22.2055559207       -2.1813971967       15.9781374947
  H        22.7662129085       -2.5827180640       16.6747110032
  H        22.2944361543       -1.1968860205       16.0071583128
  O        26.3730196875      -11.5268462363       10.6735848442
  H        26.9380878976      -11.5754918070       11.4845157820
  H        25.4900585254      -11.9088419670       10.9683737638
  O        25.4004835594      -12.5897092997       19.0099783848
  H        25.8646165815      -11.9372939980       18.4206491796
  H        25.0712382232      -13.2083639344       18.3379449314
  O        20.7301409043       -4.8342030055       13.8207320205
  H        20.3414565860       -4.2639110887       14.5513268788
  H        21.1646247380       -4.2372980763       13.2313257176
  O        14.5878325012      -11.2685902840       17.1947041845
  H        15.5061339589      -11.0316705163       17.5701432989
  H        14.8105864034      -11.9381316073       16.4949608465
  O        30.8780156836       -8.5094862307       25.4733815907
  H        30.6032021902       -7.5291883182       25.5318029237
  H        30.3842252142       -8.9382734496       24.7098002797
  O        23.0973306630        1.4495065641        7.3905608866
  H        22.8372822349        2.1522925308        6.7939632084
  H        23.7606659698        0.8532781235        6.9363517410
  O        27.6137502517       -0.8741753872       15.1107402203
  H        28.4751123322       -1.2272745667       15.5077267047
  H        26.9677191526       -1.4904198996       15.5066988846
  O        22.0416059291       -5.9584895835        6.9186901360
  H        21.1312970119       -5.4524864311        6.8763485340
  H        22.5398637450       -5.6331425401        7.7262867166
  O        24.6141450459       -5.4678754993       12.5061510009
  H        25.2771379172       -6.1604100803       12.8128376718
  H        25.0257630888       -4.5891384619       12.7016153212
  O        24.6189868406       -7.2998159221        7.9980078108
  H        25.4728739723       -7.5978866215        7.6348548853
  H        24.3078085114       -7.9159243527        8.7136984766
  O        19.2480014058       -2.3981579840       10.4682011510
  H        18.7306034352       -1.6195555903       10.8606033720
  H        19.9891039417       -2.6160407608       11.1010463141
  O        17.4592785048       -1.7247103099       16.6808844860
  H        17.3755780888       -1.4500305492       17.6744072615
  H        17.9024148835       -0.8727100391       16.3301133270
  O        28.3276044818      -11.1596800436       12.8932270416
  H        28.2806921951      -10.3485390157       13.4615335210
  H        28.2128774461      -11.8463193212       13.5650625189
  O        22.7464200760       -6.8714256822       14.1023186833
  H        23.4010058571       -6.3375612927       13.6007530134
  H        21.9235225480       -6.3269197752       13.9977126921
  O        31.1094557055       -1.8735205286       13.3794302255
  H        31.5544104413       -2.3329466720       14.1440879382
  H        30.1848056059       -2.2084059398       13.3661044481
  O        30.8104848448       -5.7726023833       17.1000114950
  H        31.1865680224       -5.0335361753       16.5330117141
  H        31.1298250167       -5.4325569394       17.9387430425
  O        29.3180507542        1.4109680777       18.7315953681
  H        28.7568083435        1.7451043885       19.5189716236
  H        29.3880849230        0.4361631081       18.9915327604
  O        26.4555765534        5.7984561060       10.2701212328
  H        25.5160149014        5.4976062749       10.1803090682
  H        26.6355212262        5.5778114394       11.2436930844
  O        18.8293901130      -11.8837056641       16.1524460789
  H        18.9140724424      -11.5069999948       17.0817796386
  H        18.2317172790      -11.2267451150       15.7952274519
  O        29.2531345906       -1.2603481430        6.8596933947
  H        28.4857556827       -1.3431311808        7.4759340854
  H        30.0814808596       -1.4498146750        7.3857680745
  O        24.6203028697        0.8741896290       13.9695154661
  H        24.1099229472        1.3816503715       13.2494620361
  H        24.9233959757        0.0025731313       13.5798198678
  O        29.7626850303       -4.4379297067       23.0096314996
  H        30.5038999321       -3.7299347896       23.0180998123
  H        30.0131352589       -5.1250196919       22.2973628923
  O        23.7848821813       -4.4948230018        5.1403329986
  H        22.9559356529       -4.9177363696        5.4180579246
  H        24.1685663691       -4.2671221228        6.0776555934
  O        21.9646681242       -2.8492598239        8.2553880339
  H        21.5861321703       -3.4080356119        8.9612175007
  H        21.1803360004       -2.5833101264        7.6912527349
  O        28.7069968088       -7.2581771163       16.5018432275
  H        29.4112591508       -6.5897085226       16.7923473095
  H        28.3329850421       -6.8005415747       15.7016498413
  O        31.7792749600      -11.7154446752       12.6317008455
  H        32.0176969305      -11.0811013071       13.3459141545
  H        31.3533107657      -12.5129606014       13.0477300493
  O        30.5580109778       -6.2966474143       21.2079285967
  H        31.2290524761       -7.0545411470       21.1405364837
  H        29.7051800992       -6.6222505464       20.8389523476
  O        21.0942904449       -7.6438795390       11.1680989245
  H        20.7204990146       -8.0094386486       10.3681651892
  H        20.2957567732       -7.4583531752       11.7418005998
  O        19.9799517486       -8.5703830611       16.8133507268
  H        20.1166973965       -9.0315960326       15.9844715728
  H        19.3879363934       -7.7953699826       16.7886913455
  O        18.1901944786       -5.7822250109       12.7381220097
  H        17.9240143452       -5.2440384773       11.8475967732
  H        18.9789219324       -5.3283562429       13.0565901770
  O        24.9675553029       -4.4750369493       20.3943603337
  H        24.7246743864       -5.4362931952       20.4997876955
  H        24.7143941299       -3.9489694329       21.1987874942
  O        26.5733555147       -7.4463709389       13.1915971734
  H        27.2165863327       -6.7586574958       13.5543613828
  H        26.4388011180       -8.0888488553       13.9711367737
  O        22.8320192848       -5.6082033695       10.4085461325
  H        22.1378393124       -6.3446836641       10.7160328634
  H        23.5166540466       -5.6290573018       11.1457643788
  O        36.1382946856       -0.9293026375       11.7173467546
  H        36.5377232502       -1.1877696348       10.8280485696
  H        35.3081263387       -0.5265280530       11.3852235608
  O        31.8215357718        2.2362174151        6.4144951179
  H        30.8464499267        2.0676578341        6.2794075082
  H        32.0541322022        3.0314637518        5.7638675438
  O        31.8685000225       -4.6769503615       19.4647717853
  H        31.3706148167       -5.0833897881       20.2973987839
  H        31.7899593630       -3.6779946319       19.5023655649
  O        30.6726491619       -9.8695437031       10.7901849102
  H        29.8944956097      -10.0452220837       10.1859252834
  H        30.8991259756      -10.6467051318       11.4022940129
  O        28.1132082609       -7.5351401353       20.7694299990
  H        27.5664940611       -7.0575680527       21.3745806256
  H        27.6735677150       -7.5232217575       19.8475726318
  O        28.4323472985      -10.2903321925        9.0978924298
  H        27.6378999760      -10.7402242111        9.3530921859
  H        28.2316808837       -9.3844691816        8.9407031981
  O        19.6298033968       -3.1358659119        3.3375496208
  H        18.8426576455       -2.6116994268        3.8186942470
  H        20.4995413773       -2.6909602898        3.6231303343
  O        27.6440645201       -3.2500988081       25.6110392074
  H        26.9568549803       -2.6092677950       25.8270559703
  H        27.6273496199       -3.1318168754       24.7011358275
  O        27.5328996626       -1.1895960214       21.2534987121
  H        27.1965487984       -2.0538009678       21.6638134256
  H        26.8135096370       -0.5549845406       21.4707867684
  O        20.7138585299        0.5250273000        7.9499465978
  H        21.6848843369        0.6683539711        7.8504967925
  H        20.2332428082        1.2239363188        7.4043443133
  O        24.2966584394       -1.6597743123       21.6067983311
  H        24.7474440636       -1.0831520638       20.9828527749
  H        23.4618391154       -1.8170110094       21.1458436615
  O        31.7678079453       -1.8584146832        7.8434386670
  H        32.1188972946       -0.9174740247        7.7968601113
  H        31.8511099279       -2.0179793332        8.8425861926
  O        27.1484529570       -3.4349254057       10.4023978390
  H        26.7041977057       -4.3563218368       10.4999994971
  H        28.1304781094       -3.7340679182       10.4041697502
  O        25.6311990248       -2.4722430910       16.8264406977
  H        24.9651932667       -3.2341255937       16.9368368362
  H        26.2159508933       -2.6635995758       17.5694179339
  O        22.1988139374        0.5943449083       15.7791417647
  H        21.6157951141        1.1709630906       15.2550606307
  H        23.0434439992        0.8467507820       15.3817202427
  O        21.7360868443       -3.2042745287       11.6376713171
  H        22.2174749666       -4.0048790515       11.2260261701
  H        22.4475450106       -2.5536519130       11.8287336311
  O        34.9087101030       -9.7683626760       12.5402829420
  H        34.8014572645       -8.8668373640       12.2356562472
  H        34.2921266771      -10.2175118205       11.9295581505
  O        21.3759513630      -12.1547514983       10.7533585980
  H        21.1788640848      -12.0058648458        9.8300465290
  H        20.6209686715      -12.1096503413       11.2955836694
  O        15.8354169766       -5.5290696393       14.1554180954
  H        16.7222309817       -5.4809598367       13.7493858633
  H        15.4887024133       -4.6116079055       13.9400200369
  O        24.8310756750       -2.9140754050       13.6291790085
  H        24.1994461122       -2.4041351694       13.0454361700
  H        24.5722445617       -2.8744008955       14.5904027361
  O        24.4148244552        2.8677953495        9.4288546133
  H        24.1030879709        2.0672596113        8.9128839104
  H        25.3735481035        2.6938387956        9.4971027677
  O        26.0386872374       -9.3541448945       15.1016848810
  H        25.4210341306       -9.9326863323       14.5131173126
  H        26.4379411675       -9.8963101583       15.7995393712
  O        22.3491412042       -8.5142036832       18.3207427803
  H        22.4584702332       -7.7112479238       18.8351178930
  H        21.4573945247       -8.3395660628       17.8777267667
  O        14.4078197112       -6.9513843847       18.4422037863
  H        14.3148808853       -5.9987060966       18.6070672314
  H        14.9230397962       -7.0612048584       17.5898256175
  O        29.5143371735       -0.4104295701       11.0312624198
  H        28.8472532917       -0.4521357527       10.2689362186
  H        29.1902912077        0.3288069469       11.6602182073
  O        26.9068200707       -3.7938017629       18.8087379732
  H        26.2976725669       -3.9226327331       19.5909839998
  H        27.6206447309       -3.2242748866       19.2283842006
  O        32.1386569359       -8.6712302649        9.0338747668
  H        32.4389061218       -9.3460021314        8.3481815126
  H        31.5829319311       -9.2325814141        9.6908321747
  O        17.0504009216       -9.6313982063        2.7646261472
  H        17.6223636606       -9.1952069619        2.1279971097
  H        16.8313367362       -8.8389917168        3.3411612484
  O        20.6156481584       -9.7510009460        2.0291330238
  H        21.4174660356       -9.6303139634        1.4430406277
  H        19.9352288262       -9.2036705027        1.5745837168
  N        24.2328355976       -7.4373698466       16.3565498532
  H        24.4302989778       -6.4323021837       16.6586389201
  H        25.0393936544       -7.9032051476       15.8763410956
  H        23.4705220966       -7.3806939817       15.5104105793
  H        23.7740374848       -7.9614437027       17.1039015196
