     194
 CELL 12.4294 12.4294 12.4294 90.0 90.0 90.0 i =    32420, time =    16210.000, E =     -1097.1119997565
  O        -6.5286728486        4.3900375021        8.1331504121
  H        -6.7623859482        3.7275498150        7.4772843209
  H        -5.5614290950        4.4930907382        8.2952917127
  O         0.0419908975       -8.9049092364        3.8444434011
  H         0.6513240091       -9.3445807155        3.1947748694
  H         0.6985849872       -8.9072614594        4.5693168303
  O        -3.0487017779       -8.7579019118        8.0963959669
  H        -3.1929736833       -7.8120453573        7.8535529705
  H        -2.0367363821       -8.9581626539        8.1520864370
  O        -8.3668978992       -0.6343995506        8.0286785298
  H        -9.0757150985       -1.3285638947        8.3046963052
  H        -8.1243580577       -0.3632970705        8.9503609896
  O       -16.0733086631       -6.1220638192        8.0045951017
  H       -16.0577533277       -5.5902261246        8.7621327798
  H       -15.5829467141       -5.6081082981        7.3914539397
  O        -0.7282986707       -2.4064117673       14.9617156184
  H        -0.2007352523       -1.6863378222       15.3766476606
  H        -0.3361493216       -2.7964569447       14.1505769109
  O        -3.5637592907        3.9855878233       -1.4174428033
  H        -2.7663240103        4.5146779121       -1.1462595449
  H        -3.4687262736        4.0177574075       -2.3831698932
  O        -1.5162512499        5.6439958784        5.6944301822
  H        -0.7118821325        5.2446366649        5.3513797417
  H        -1.6402533723        6.4437955970        5.0942588364
  O        -7.7329970061       -3.5199537552        0.6463890904
  H        -6.8967006720       -4.0434661151        0.6178023994
  H        -7.8678772621       -3.3333730393        1.5958598392
  O        -2.8047092826       -0.4224114139        2.6012609442
  H        -3.1201445260       -0.4489088224        3.5048598744
  H        -2.0827742719       -1.0867141091        2.4735017783
  O        -0.2321192092       -3.8884685367        0.2485798812
  H         0.4185972175       -3.8208479878       -0.4258095458
  H        -0.1425639185       -4.7343389809        0.7476710078
  O        -5.7958510651        5.2086379966        5.0361562944
  H        -5.4163725176        5.5397633975        4.1941152668
  H        -5.1511032712        4.4139371114        5.2650155116
  O        -9.3957258832        2.4468951424        8.8861979129
  H        -9.9474913326        2.2384132299        9.6220325617
  H        -8.5082647291        2.3814548892        9.2432160915
  O        -1.8666145417       -4.4765304144        4.2806656635
  H        -1.1787592030       -3.8439064579        3.8850204971
  H        -2.3763027977       -3.8984486234        4.9181559939
  O        -4.2496529456        0.0173999006        4.9455003345
  H        -4.7598346166       -0.8219268518        5.0822057214
  H        -3.6211110724        0.1343911002        5.6779137941
  O         1.3039180656        3.1079079571        6.4129468886
  H         1.8475587079        2.3569740362        6.0102390540
  H         1.8703363078        3.6000566797        7.0211551194
  O         0.5728991161       -0.0516744182        3.7055270403
  H         0.9696896273        0.0922471485        4.6019465147
  H         1.0222290406        0.6150867748        3.1807404249
  O        -1.5391582656        5.5925057996       11.2301791211
  H        -0.8929360219        5.3364402606       10.5639324029
  H        -0.9792729659        5.6867213616       12.0731524889
  O        -2.7347475497        5.3235967332        2.9331836122
  H        -2.9354950614        4.3910561450        2.8088048625
  H        -2.6110789962        5.4573802163        3.8945451534
  O        -7.6447540154       -7.3623634854       10.7883767698
  H        -6.8284994664       -7.0370932591       11.2654270504
  H        -7.3882674485       -7.5559974818        9.8757035232
  O         0.8075913770        1.8143951341       -2.1719897800
  H         1.0750900937        0.9428409302       -1.8254042268
  H         0.7151200171        2.3901645680       -1.3964106068
  O        -6.0778660832        7.5410870872        6.5257389727
  H        -5.2296038544        7.7999534471        6.9644760127
  H        -5.8427646941        6.5761420813        6.3193890734
  O         2.1358280418       -0.4204134329       11.4224277043
  H         1.9607979970       -1.3942328035       11.3464004159
  H         3.0966654299       -0.1983199721       11.2493304940
  O        -6.0797827050       -1.4924820338       -0.5329603863
  H        -5.7278533243       -0.9316311469        0.1947916724
  H        -6.8648462388       -2.0087828783       -0.2136554532
  O        -6.2130255958        3.2103110981        2.1893913230
  H        -6.1354727886        2.7715804365        3.0534299934
  H        -6.0999372545        4.1598327997        2.2751194537
  O         1.6031808509       -3.2134412748        5.8461018435
  H         1.9665968316       -3.9037757220        5.2940401612
  H         2.2744090185       -2.5590897843        5.5641094946
  O         3.6294406746       -7.1595183557        5.4407865905
  H         3.4280461090       -7.4060765564        6.3975218348
  H         4.6217109711       -7.1905541643        5.3736931110
  O        -0.9420750957       -1.1876936321        9.2906861607
  H        -1.9033411379       -1.0443238973        9.4209610337
  H        -0.5639202706       -0.5050596718        9.8174843338
  O        -8.0162963743       -2.8689664080        3.3653418667
  H        -8.3514980558       -3.7851954457        3.6526462720
  H        -7.1143054762       -2.6943085694        3.7309627384
  O        -4.9115575797       -4.2185330413       10.1118907641
  H        -4.4606733227       -3.7392622462       10.9068935454
  H        -5.6244451155       -3.6980910731        9.7199074380
  O        -9.9071492951        0.4144007942        5.7358393493
  H        -9.2892807485        0.0532268513        5.0447535965
  H        -9.4369113046        0.3690663891        6.6313948121
  O        -5.0307306325        1.6936396772       11.2708364814
  H        -4.4724317223        2.5630069366       11.4320921364
  H        -4.9221355828        1.0919880500       12.0142346730
  O        -4.3107149361       -3.7987573666        2.5753891535
  H        -4.7077079689       -4.6898123994        2.4300712367
  H        -3.4688404163       -3.9955567128        3.0401113765
  O        -6.7380822491        1.3187326932        4.1238678676
  H        -7.3984551398        0.7566465865        3.6704945784
  H        -5.9529123994        0.8576463078        4.4206307439
  O         7.3869575286        0.1383427434        1.1992620188
  H         6.8315769923        0.9762375300        1.4398803520
  H         8.2625200824        0.1484823262        1.6202500031
  O         4.1795294953        2.4776192726       -0.1579290377
  H         4.7723390162        2.9067122363        0.5270391554
  H         3.8557918860        3.2841113167       -0.5767353747
  O         2.4233344507       -3.5416878767       11.4171457543
  H         2.5298211327       -3.4035161149       10.4412608040
  H         3.3120126953       -3.4529760564       11.8480296591
  O         2.9113784156       -4.8284848348        4.2238696114
  H         2.6118133953       -5.3716233977        3.4304271546
  H         3.4496200659       -5.4631764337        4.7511322127
  O        -3.3127154216       -2.9164706022       11.9890366087
  H        -2.3270848056       -3.1831549100       12.1393549982
  H        -3.6526156436       -2.5850467254       12.8869465353
  O         2.2256259452       -6.3713268220        2.0787824973
  H         2.8916329253       -7.1366234281        2.2860873914
  H         2.7010522242       -6.0344049907        1.2519949818
  O        -9.7336303465       -3.0644086954       -3.7168038358
  H        -8.9294951917       -3.6325606921       -3.8424773168
  H       -10.3109962866       -3.2175728578       -4.5021011503
  O         1.3130625536        3.5388449233       12.3299591988
  H         0.6331834256        3.4806741373       13.0663659959
  H         1.4917677940        4.5205192938       12.3146674555
  O        -3.8281235539       -0.9392295245       10.0923688341
  H        -3.6269907029       -1.5900957187       10.8138279349
  H        -4.2989492482       -0.1911647047       10.5626112332
  O        -5.2533392447        6.1664502494        2.0802695678
  H        -5.4380630780        6.0062795261        1.1326376624
  H        -4.3060183286        5.9263964450        2.1457084878
  O        -0.6789931508        2.1607241134        7.9922853821
  H        -0.3370498924        2.0819901311        8.9304267654
  H         0.1059045486        2.4622750817        7.4498440309
  O         3.3394016946        3.6994750956        3.1111769486
  H         4.2683292230        3.3608340145        2.9662119439
  H         3.3022798470        4.1297940408        4.0060472200
  O         1.6786489133        1.0471551825        1.3526129165
  H         2.1925679172        1.7974509476        0.9115233250
  H         1.5112022225        0.3977602990        0.6228272259
  O        -2.6568432965        2.5086067149        3.6732345498
  H        -2.6537585484        1.8027067096        2.9787497897
  H        -1.6985604831        2.6876123981        3.8223689322
  O        -5.3833426630        6.1917402350       11.7191303193
  H        -5.2422993455        6.8791605721       10.9613688717
  H        -4.7831806552        5.4390804658       11.4986881589
  O        -7.1765744284        1.7959185523        6.7105327882
  H        -7.2933093641        1.6310127444        5.7052880102
  H        -7.8823113106        1.2680286954        7.1865351837
  O         4.7133697515        0.2061754006       -1.6903122678
  H         5.4725787153       -0.3239190692       -1.2728471148
  H         4.7757706517        1.0933769767       -1.2052816642
  O        -5.6197749765       -2.7023055984        4.7347742720
  H        -5.7892825259       -3.4124523900        5.3811482932
  H        -5.0384375523       -3.0164523052        3.9886648421
  O        -8.8227948754       -0.1901780051        3.1697554578
  H        -8.7676264146       -1.1681463906        3.2429039600
  H        -9.5596281056        0.1527383580        2.5857506315
  O        -4.2429524122        3.0258466176        5.7575492944
  H        -3.6673557283        3.1025889690        6.5484029539
  H        -3.7085846916        2.6658129164        4.9697235623
  O        -0.3356831162        5.8534734698        1.2093202100
  H         0.6120077108        5.7091685251        1.4539365015
  H        -0.8960567798        5.6436093159        1.9779214477
  O        -3.0584504336       -3.5667433321        6.4276121314
  H        -3.6379282175       -2.9389495379        6.9407452607
  H        -2.2046954838       -3.4890415096        6.9280562621
  O        -5.1651098716       -2.1151125464        7.8835633909
  H        -4.8899169008       -1.7187798293        8.7388230983
  H        -6.0097277105       -1.8467098191        7.4861506691
  O       -13.0038704125       -3.2168591800        7.4024311669
  H       -12.3079261884       -3.0765741394        6.7335300343
  H       -12.8819450993       -2.6563003180        8.1784617955
  O         2.5737705848        5.3329346009        8.1884149547
  H         2.6595613666        4.5607185989        8.8280093346
  H         1.7021465596        5.8088567312        8.2857064103
  O        -2.2137271995        0.1713603243        6.7564914399
  H        -1.6480199791       -0.6550469831        6.8532982674
  H        -1.7474531807        0.9105854823        7.2354266628
  O         2.3507116613       -6.2733677582       -0.6275030004
  H         2.9780213511       -6.6466083542       -1.2460445925
  H         2.2730813298       -5.3441846367       -0.8582229055
  O       -12.4342911320       -6.1737075276       -4.0726205175
  H       -12.8639693672       -6.5621014061       -4.8151120112
  H       -12.7431175116       -5.2493072337       -4.2017982298
  O        -7.6899600334       -4.5208211116       -3.8366159289
  H        -7.8473973267       -5.3928851981       -3.4054745410
  H        -7.0579067594       -4.7727480598       -4.6029733226
  N        -4.8208038753        1.2625686725        8.2138933274
  H        -4.0971808819        1.9028478502        7.9833923308
  H        -4.4442449749        0.3169188769        7.9846978594
  H        -5.6866523385        1.5027191758        7.6099833401
  H        -5.0073495240        1.3115205857        9.2528402313
