     194
 CELL 12.4294 12.4294 12.4294 90.0 90.0 90.0 i =    38020, time =    19010.000, E =     -1097.1479489988
  O        -3.7600651471        2.9098565078        9.0299901819
  H        -4.1983066716        2.5507852199        8.2699499819
  H        -2.9077513629        3.2335708142        8.8299883021
  O         3.4410867086       -9.3108258510        7.0611793305
  H         3.9959721707       -9.1105604074        6.3427036031
  H         4.0487687044       -9.3119170036        7.8723310859
  O        -0.9013272638       -9.3004681075        8.6858184490
  H        -0.3164036986       -8.5345091759        8.4178634521
  H        -0.3225962017      -10.0542095082        9.0586339540
  O        -6.1178699770       -0.6740777102       11.3551629496
  H        -6.4081404171       -1.4763071257       10.8878027907
  H        -6.8144866475        0.0194575067       11.4385740225
  O       -14.0879479341       -6.4519814674        9.2055997687
  H       -13.6982446158       -6.1451935722       10.0465474500
  H       -13.3708298576       -6.1798684036        8.5490905152
  O         2.1253801108       -3.6765179825       17.6593357896
  H         2.1368599300       -2.7883762513       18.1779753007
  H         1.7799558929       -3.4901761328       16.7573056632
  O        -0.8570503845        3.6683965129       -0.8059236592
  H         0.0141051482        4.0562720293       -0.6377815697
  H        -1.0494277482        3.8511990263       -1.7292872043
  O         1.2572976063        4.9439534220        7.6411630697
  H         1.9616308218        4.3935806976        7.3182497332
  H         0.8658837740        5.5578584988        6.9909371746
  O        -4.2638711799       -4.3678771072        1.6583358961
  H        -4.8765636955       -5.1236331769        1.5208334584
  H        -4.4818264164       -4.1195451021        2.5895846882
  O        -0.3745690535       -0.2534614487        3.9443269819
  H        -0.6326867082       -0.4978610764        4.9037113693
  H        -0.0395004334       -1.1125261775        3.5857878065
  O         1.6001788526       -4.8352010419        0.6904097513
  H         2.5293192547       -4.5271424379        0.5041631269
  H         1.5399091926       -5.5459490794        1.2694471558
  O        -3.8765096519        3.4408086158        4.4223756939
  H        -3.4586893112        4.3124886255        4.0677508831
  H        -3.1459254447        2.8760470395        4.6599663625
  O        -7.9170817891        1.4119974770       11.8890557703
  H        -8.8174611127        1.4845079476       12.2711931434
  H        -7.4260013239        2.2592955069       12.1742060729
  O         0.2038888724       -5.4430567035        6.1247448924
  H         1.0041669507       -4.9220692547        5.8169702152
  H        -0.1095608929       -4.8604997349        6.8808635355
  O        -1.9854463716       -0.7840244645        6.1803894456
  H        -2.3488539036       -1.7103882773        6.2978543755
  H        -1.7867142664       -0.4838989780        7.1380131169
  O         3.5607747408        0.5937602181        9.4772756944
  H         4.3053462827        0.5050515340        8.7690300668
  H         3.8988154971        1.2699629485       10.0850789394
  O         2.2240807918       -1.2701877387        6.7995567149
  H         1.4862615467       -0.7797735653        7.1545879901
  H         2.7245550852       -0.5733247958        6.2718212176
  O         1.7689320196        4.4586926232       12.1818152760
  H         2.2109765532        5.1057553474       11.6184051259
  H         1.9233562468        4.8025757460       13.1209672751
  O         0.0269914621        4.1735606815        4.1174803146
  H        -0.5953033741        3.5322553499        4.5776685772
  H         0.1460150262        4.8596207288        4.8857407138
  O        -4.8408213150       -7.4667824473       10.9697652435
  H        -4.1081188442       -7.0782466219       11.4962111799
  H        -4.3497917804       -8.0534345873       10.2779062267
  O         1.7693709627        1.4929242747       -0.1762387027
  H         1.2620503015        1.5176797533        0.6908193512
  H         1.9302256132        2.4688478333       -0.3474463046
  O        -3.7209358779        7.0475589938        7.6366952943
  H        -3.0756305754        6.6849404834        8.2575516934
  H        -4.1075551253        6.2718052909        7.2451680139
  O         4.0352535643       -1.2756266386       14.1759276133
  H         3.5133160553       -0.8089478968       13.4633886878
  H         4.9979238700       -0.8455638529       14.2225791015
  O        -3.5518042538       -2.1103992997        0.1591321644
  H        -3.2862134105       -1.4496233487        0.8462920212
  H        -3.8162535843       -2.9662686729        0.6611470031
  O        -5.5795957461        2.3186331319        2.4686159157
  H        -5.0785131079        1.5062863945        2.1709266730
  H        -4.8241778208        2.7247431857        2.8990651439
  O         4.2218735830       -3.3270018314        7.3855953654
  H         4.4436023818       -4.0084686406        6.7423658383
  H         3.8053358437       -2.6567563364        6.7831829003
  O         7.0212498324       -7.2964659944        6.4220114377
  H         6.5519586362       -7.8709761809        7.0755239528
  H         7.4523455803       -7.9798789116        5.8953084931
  O         2.8628085660       -1.8316145824       10.9738788853
  H         1.9843334407       -1.5370425843       11.2250155326
  H         3.1730119042       -1.0031853855       10.4702021863
  O        -5.6199712433       -3.3670826543        4.1794394638
  H        -6.1964687390       -4.1332481773        4.3821113021
  H        -4.8398520812       -3.4008706293        4.7832103091
  O        -0.3589786006       -5.4387797915       11.2946291213
  H         0.4023419361       -5.2859336811       11.9217256060
  H        -0.7160539616       -4.4793408910       11.1635338630
  O        -6.6471731716       -0.2003385178        8.2117250497
  H        -6.5217725670       -0.6162513463        7.3046978480
  H        -6.4770315610       -0.9497453902        8.7861188810
  O        -1.6166520854        1.1928005046       12.8776890452
  H        -1.2209699856        2.0766077345       12.6005273821
  H        -2.1306468325        1.3246381724       13.7299677615
  O        -1.5014492918       -4.4360368894        3.9789329757
  H        -1.8796413614       -5.3482400586        3.7103326360
  H        -0.8713642404       -4.6361050549        4.7173343388
  O        -4.2534889682        0.1983155515        5.2484630696
  H        -4.8713398997       -0.6088883820        5.3485734270
  H        -3.4231557262       -0.1875187843        5.6193514303
  O         9.4975199318        0.0585957552        2.7532890535
  H         8.8084289722        0.1479452218        3.4375884965
  H        10.3887420454        0.1635735764        3.1479254546
  O         5.8211343583        3.6495950748        0.4541757086
  H         6.3701100146        3.2954015087        1.2083127768
  H         6.4129517741        3.9935952828       -0.3216959978
  O         4.1758283090       -3.7365191672       12.7213023484
  H         4.3084987365       -3.4186782629       11.8050197407
  H         4.0273775243       -2.9424664894       13.3310291276
  O         4.9050564816       -5.1580161130        5.6570359659
  H         4.2526784000       -5.6080389803        4.9840871532
  H         5.4794224933       -5.9313439655        5.8059085449
  O         0.7380917799       -3.1282906421       15.2197396756
  H         1.0960601988       -3.5177041594       14.3852312324
  H        -0.0493709853       -3.6968138261       15.4640319213
  O         4.3314316445       -7.2838771317        3.6474390187
  H         4.5796487243       -8.1354321657        3.9963290794
  H         4.8978080882       -7.0420119711        2.8792398183
  O        -6.6726450062       -2.5473537009       -2.7587372821
  H        -6.0872362649       -3.3280154616       -2.5640164552
  H        -7.5056332970       -2.8437651741       -3.2032048878
  O         0.7815408880        1.6550174510       14.9177798612
  H         0.4345250645        0.9195049127       15.4422932654
  H         0.8569618536        2.3783618552       15.5785137182
  O         0.0133107343       -1.1805788733       12.4408969759
  H        -0.0781766120       -1.6445323290       13.3330385546
  H        -0.5413031874       -0.3208521247       12.5917492938
  O        -2.2296051716        5.4560533487        3.2524740006
  H        -2.4831885351        5.4874658102        2.3018961481
  H        -1.4063396212        4.9638005330        3.3120615834
  O         0.4930654531        0.9405006110        9.7888950784
  H         0.6543042278        1.1303620912       10.8013926378
  H         1.4243100352        0.8162338849        9.5172353247
  O         5.0710719751        2.3758245300        4.7139946924
  H         5.7532042725        2.3363400603        4.0199799530
  H         5.6514497664        2.2347631856        5.5189257122
  O         3.4066083216        0.1167478365        4.3989192626
  H         4.0471627865        0.8415206382        4.2734511536
  H         3.3128560798       -0.4039132694        3.5540464779
  O         1.0955347757        1.5113316725        5.8010903507
  H         1.6378127000        0.9603540185        5.1957986208
  H         1.7187607910        2.2531528168        5.9747266711
  O        -2.6175120441        5.7496160200       12.7351904409
  H        -2.3894677494        6.6975848045       12.7120008504
  H        -1.9244054852        5.3022031745       12.1482504907
  O        -5.6428788324        1.9630393435        6.8761363528
  H        -5.0770104320        1.4326945518        6.2700275595
  H        -5.9194270700        1.2704974821        7.5908373448
  O         6.6609696849       -0.5428166107        1.6338255474
  H         6.9361355944       -1.3561535500        2.1006716467
  H         6.7401390203       -0.8333812463        0.6973199853
  O        -3.1628255852       -3.2126727024        5.6544553228
  H        -3.1118692496       -3.9225673034        6.3668467764
  H        -2.6516284442       -3.6587361002        4.9434419373
  O        -6.6517201497       -1.1749862798        5.5576306572
  H        -6.4645455351       -2.0255743440        5.0571591323
  H        -7.4803254859       -0.7814060406        5.1423866834
  O        -1.6933299910        2.1682805767        5.6571290530
  H        -1.3754565038        2.4730988848        6.5351026199
  H        -0.8956597699        1.5813341073        5.3935841046
  O         1.7026570455        5.3032452932        2.2959374939
  H         2.4961669458        5.3133466454        2.9147180737
  H         1.1163112977        4.7046336942        2.8402662232
  O        -0.4986057810       -3.9616060924        8.2644342814
  H        -1.2447600622       -4.1167090719        8.8015138649
  H         0.3407664809       -3.9732959778        8.7350850139
  O        -1.4345414747       -2.9636702455       10.8205336874
  H        -0.8711347045       -2.3388527931       11.3444338970
  H        -2.3536565892       -2.9523965534       11.3245970297
  O       -10.3240605953       -3.8221494196        9.1723962614
  H        -9.7673412884       -3.5297771387        8.4015631712
  H        -9.9459248123       -3.1483673609        9.7910221814
  O         5.4555882170        4.4462625586        8.8370613311
  H         6.1632430090        4.5789156330        9.4569444271
  H         4.8160843410        5.1443226190        9.1291085362
  O        -1.7195513301       -0.6064045092        9.0482773257
  H        -1.5279055858       -1.4967660270        9.5239898056
  H        -0.8978828294       -0.1323572036        9.2871789967
  O         5.8248665119       -6.0033157515        1.2471016689
  H         5.7386476495       -6.8474869955        0.7485087147
  H         5.3244571782       -5.2949734968        0.7193734206
  O        -9.2357366935       -6.3512695166       -2.6237054569
  H        -9.9743279467       -6.7475448647       -3.1577124657
  H        -9.5007626553       -5.4115914755       -2.6936485633
  O        -5.4678905172       -4.6888128593       -2.4358920742
  H        -5.5214127629       -5.4390809844       -1.8092690160
  H        -4.9619303125       -4.9416715118       -3.2496568158
  N        -3.7432821299        0.5303419614       10.5808081397
  H        -3.8970019742        1.4648731821       10.2346517377
  H        -3.1085398269       -0.0371776580        9.9372096214
  H        -4.6069882382        0.0101736661       10.8324122247
  H        -3.1971864036        0.4977141235       11.4828820021
