     194
 CELL 12.4294 12.4294 12.4294 90.0 90.0 90.0 i =    86020, time =    43010.000, E =     -1097.0887947512
  O        17.0285184949        0.0607694862       13.0665703708
  H        17.4264373524       -0.8587305229       12.9513314344
  H        17.6443944509        0.8082181661       12.9597292789
  O        22.3447296409      -10.4297023790        9.8507739939
  H        21.3946527321      -10.2979307838       10.0054947102
  H        22.6733129343      -11.3214691101        9.5801888868
  O        20.8593426419      -12.7193946377       12.0796346335
  H        20.8873039034      -12.4760107979       13.1036344357
  H        20.6302944240      -13.6490732158       12.0631038216
  O        15.2254062373       -3.4806882313       13.2182526710
  H        15.3595376770       -4.0021700375       14.1134855914
  H        14.5071142685       -2.8492198964       13.3752243340
  O         9.0892421118       -9.0170325807       14.3626108790
  H         9.3683667129       -9.3936987321       15.2156093023
  H         9.6890024321       -9.4260281043       13.7028819364
  O        26.9956731067       -6.4090937199       24.0858160923
  H        27.8270676305       -6.8194884795       24.3255080355
  H        26.4656257978       -6.7860274629       23.3902987507
  O        20.4204565839        0.4922807127        2.3748870673
  H        19.8333919038        1.2320257942        2.6404553175
  H        21.2910821130        0.6189303597        2.8558739468
  O        23.5094412458        3.1271731944       12.0724957258
  H        22.9921969212        2.6014818198       11.3679860436
  H        23.4942591769        4.0975050832       11.7830084673
  O        16.0140548390       -7.1172940070        3.7966818137
  H        16.0870193447       -7.6061016644        2.9715237571
  H        15.6489270350       -7.8627859990        4.4073053878
  O        19.8551762741       -3.0487503773       10.4766937890
  H        19.6891562318       -3.9353443432       10.8800758341
  H        20.6027114311       -3.0578986439        9.8456254913
  O        20.2034408369       -8.4745572895        5.2874699187
  H        21.0470855548       -8.0329877981        4.8162729952
  H        20.5710170510       -9.1964825114        5.9094522502
  O        16.0639844736        0.3160473231       10.3998520510
  H        15.9810951655       -0.5353509219        9.8965890384
  H        16.3676276755        0.1466904718       11.3160686909
  O        13.0383301449       -1.6776594914       13.3871116847
  H        12.4666878696       -1.4913500646       14.1834881510
  H        12.8539613890       -0.8436131376       12.8453359906
  O        23.3451312091       -6.7097066747       11.4613266248
  H        24.0588903280       -6.3252708205       10.8425339220
  H        23.2901312644       -6.1098155016       12.2378177181
  O        17.7468238929       -2.4467201900       12.1831845786
  H        18.0462045616       -2.3962785077       11.2915765120
  H        16.7985969864       -2.7210592859       12.2407166089
  O        24.3277897474       -2.8036208192       11.1534656348
  H        25.3448800836       -2.6681620648       11.1244036408
  H        24.0864914290       -2.4870540120       12.0424966035
  O        25.1334372933       -5.2812787524       13.2000031855
  H        25.9875370184       -5.4643295368       12.6833833652
  H        25.2813986508       -4.5122441043       13.7939737318
  O        22.5112091694        1.9974055650       16.6039571623
  H        22.1010115911        1.9879554995       17.5185071088
  H        23.4551953048        1.8784298269       16.8428031436
  O        20.9029049433        5.0433860788       10.1224813165
  H        20.5211461500        4.1893695215       10.4746786292
  H        21.7519818618        5.2445921564       10.5579231094
  O        15.8424426356      -10.1684500308       15.1997425168
  H        16.6020458539      -10.2199080137       14.5325650787
  H        15.1873705632       -9.5989496461       14.6907048980
  O        23.9777335331       -2.0085565670        3.5314554929
  H        23.0157148372       -2.0924053053        3.8233551917
  H        24.3438644346       -1.4551835237        4.2952879414
  O        18.7935594764        2.7555242655       13.1008369463
  H        19.6573865715        2.7707766327       13.5629655687
  H        19.0113844440        2.6073796775       12.1029678613
  O        25.5887419791       -1.5120426616       20.0736000070
  H        26.5478144234       -1.6158568178       20.3718922233
  H        25.2831259796       -2.4911567826       19.8461878792
  O        16.5602350682       -1.9824204717        4.0346900787
  H        15.9696519375       -1.2352703108        4.0723095663
  H        16.0670525119       -2.7879855356        3.8456421087
  O        18.7887069920       -2.1724867398        5.7334130805
  H        18.4675332442       -2.4447837357        6.5998577281
  H        17.9632723648       -2.2824892285        5.2043050098
  O        24.2224128441       -7.4043881240       14.8656918443
  H        24.6942094121       -6.5544725662       14.3953029453
  H        23.6961692884       -7.6473285649       14.1028931823
  O        27.5282029439       -9.6117921086       10.8887769831
  H        26.9647265188       -9.5087088139       11.6679341174
  H        27.3598506703      -10.5352920239       10.5645725894
  O        24.6533861929       -4.0389414531       19.6422308864
  H        25.2919644081       -4.5829504969       19.1382089260
  H        23.6737267355       -4.0466960337       19.3012146418
  O        14.1314703117       -6.3203920943        7.0118337011
  H        14.1393245980       -6.5132277951        7.9452596208
  H        14.9733169041       -5.8665317484        6.8447724684
  O        18.8058860276      -10.1382117754       16.1863990289
  H        19.4714739330       -9.5250705275       16.6640840195
  H        18.0581801825       -9.5566802348       15.9392936474
  O        14.5718198256       -3.5370873960       10.6107927819
  H        13.9521680014       -4.2538864744       10.3677606060
  H        14.8632142321       -3.8280147794       11.5229149829
  O        19.7934760481       -0.0524198402       19.7009612306
  H        19.3046692605       -0.6263527464       18.9834348755
  H        19.2345527224        0.2061560961       20.4722833208
  O        19.4323053352       -5.5474454181       11.3317442340
  H        19.7899445444       -6.2345162685       10.6786931750
  H        19.4196867734       -6.0350010403       12.1926101562
  O        17.9319721922       -3.3037938498        8.2365586269
  H        17.6062373848       -4.2405835487        8.1299618860
  H        18.6062806504       -3.3886515902        8.8907877165
  O        30.1352473142        1.3982593921        8.7027548707
  H        29.6113304633        1.7097524763        7.9265325344
  H        29.4956217842        1.0634143069        9.4310774633
  O        24.9646292394        2.6136458547        5.7631614810
  H        24.7133596536        2.7918535561        6.6951077142
  H        25.0770287053        1.5828437903        5.7468406935
  O        24.9230214417       -4.4899054247       16.4029490497
  H        24.2195286840       -5.0725058521       16.7958208985
  H        24.6260555246       -3.5885796797       16.1949665639
  O        26.1575677621       -7.7610228386        9.2133164112
  H        25.2900032718       -8.2836232353        9.0081646306
  H        26.7766502034       -8.4036969671        9.6295531899
  O        21.7317153866       -6.6571563459       19.9917077864
  H        21.2527934265       -6.8290355827       20.8682142874
  H        21.2840046838       -7.2615915829       19.3531308834
  O        23.6359762807       -8.7710379170        8.2338780079
  H        23.0551326526       -9.3340268283        8.9319559865
  H        23.1248513522       -7.9626616480        7.9949304642
  O        15.0973686101       -4.4650926915        3.1724836097
  H        15.4479286296       -5.3195971746        3.5083133955
  H        14.1571996586       -4.6319440837        3.4970603934
  O        21.4925228988       -2.1880012681       20.7882824790
  H        22.2600464968       -1.6481704736       21.1619703805
  H        20.9637272265       -1.5928202258       20.1691476129
  O        22.1774620647       -4.0744749104       19.1790750589
  H        21.8928245939       -4.9845170195       19.4788544399
  H        22.0862780585       -3.4882815551       19.9809486719
  O        16.7073054457        1.6761855464        6.2725639745
  H        17.6302067475        1.8649817386        5.9228959293
  H        16.2138386074        2.5378722523        6.2006047821
  O        21.3539684993       -2.6150654272       16.9790471520
  H        21.8354741278       -3.0838902684       17.7255555231
  H        20.4712361307       -2.3791094825       17.3700531181
  O        25.0288671118       -0.0033774452        5.3865799129
  H        25.9169094120       -0.0481739474        4.9049149141
  H        25.2313206719       -0.4783964217        6.2741570915
  O        23.3456547298       -0.4245749139        9.2864387431
  H        23.6314586548       -1.0146241183       10.0318899021
  H        24.1264235022       -0.3427694873        8.5987428237
  O        21.0636821529       -2.9580278760       13.1594684780
  H        21.1358017982       -3.1942003127       12.1890925498
  H        21.8314327891       -3.4070019732       13.5738418564
  O        15.0015245845        0.2582237447       16.8480153763
  H        15.1364880707        0.8630242760       16.0822554793
  H        15.5000516452        0.7337218445       17.5691841109
  O        15.7454782113       -1.8896340816        8.8931732490
  H        16.5108697834       -2.4809055382        8.4795957153
  H        15.3642306999       -2.5314385494        9.4880764442
  O        29.6390928575       -5.9103142640        8.0198290191
  H        30.0028597579       -6.1409447276        7.1361916272
  H        30.0088962546       -6.5735648391        8.6830120265
  O        17.7693783854       -8.3015339071        9.9152366622
  H        17.6915880846       -9.0452723217        9.3119852798
  H        16.9676879423       -8.2222244631       10.4925348858
  O        12.3656698860       -4.9374367378        9.7396940156
  H        12.3019439788       -4.7995006071        8.7469014401
  H        11.7753180286       -4.2243988978       10.0973828769
  O        19.8308578895        1.9320910918       10.6893050355
  H        19.1128673254        1.6549243122       10.0393119546
  H        20.0349594507        1.0202143952       11.1662072866
  O        21.5484672996        1.9667729364        6.6656971475
  H        20.9710610238        1.1626253285        6.7195373246
  H        21.8301875276        2.4390667500        7.4423679847
  O        19.6802361597       -6.7646758222       13.9646315107
  H        20.0530389622       -6.1012224232       14.6098229325
  H        20.1793186809       -7.6109770204       14.0982879299
  O        18.2104422985       -6.4679858121       17.8802415131
  H        18.7616568954       -7.2823800926       17.7166684760
  H        17.4810806767       -6.4171435477       17.1975827201
  O         9.7767146575       -6.3862608793       16.6573763659
  H         9.1343253866       -5.8685548217       16.1066013514
  H        10.4363865213       -6.6745594645       16.0118636650
  O        25.2779545619        1.0163421916       12.1452882672
  H        24.6754839791        1.6819988659       11.8378781092
  H        25.6334555393        1.5177199008       12.8730981768
  O        20.1289542052       -4.8457654049       16.0840769409
  H        19.5457964259       -5.2179288781       16.8520987731
  H        20.6055754397       -4.0471632771       16.4817058381
  O        27.3785517421       -8.6399156326        5.6027396155
  H        26.5143673764       -9.0726971636        5.4967860844
  H        27.0407342390       -7.8644707928        6.1544807146
  O        14.0806761469       -8.6207416988        1.4349976326
  H        14.1688377802       -7.8972616973        0.7948626059
  H        13.2587483291       -8.3967367123        2.0075373790
  O        16.9502190185       -7.6212517660        0.1229447811
  H        17.3907329672       -8.4432038409        0.4839154683
  H        17.6523132416       -6.9587138030        0.3386309329
  N        18.9536727664       -1.9880775428       14.8383656779
  H        18.2207450464       -1.8097449241       15.5529050643
  H        18.5344531000       -1.7945199246       13.8929466046
  H        19.3204695782       -3.0143660973       14.9046695469
  H        19.6217880888       -1.1921810556       15.1041939840
