     194
 CELL 12.4294 12.4294 12.4294 90.0 90.0 90.0 i =    64820, time =    32410.000, E =     -1097.1410701513
  O         8.7914603684        0.1125372946       11.1507785475
  H         8.7276778268       -0.8135270304       10.8388796769
  H         9.6589353523        0.5372488118       10.8466954272
  O        13.0841420253       -8.8866533645        9.1200463539
  H        12.6554303157       -7.9663109822        9.0100849567
  H        12.3483583377       -9.4770669171        9.1581834996
  O        11.1094378534      -10.7688466467       10.8873380808
  H        11.5457079194      -10.2602372546       11.6317078285
  H        11.8360132912      -11.3720901973       10.5674726348
  O         6.0002933165       -2.3565350364       13.2089258292
  H         5.6477649199       -3.2596442789       13.3568043031
  H         5.3153479160       -1.7236039235       13.5107245883
  O         0.0696620099       -9.2839310602       12.8013821104
  H         0.1754508970       -9.8711516768       13.6238184213
  H         0.9880855072       -9.1879037535       12.4330019919
  O        14.9185409950       -5.1087901350       22.3011805130
  H        15.6619719824       -5.6222351338       21.8071838794
  H        15.1021837864       -4.1684966825       22.2039593407
  O        10.8176240752        0.0449702602        2.4799886455
  H        10.5000601213        0.9429202184        2.7273626985
  H        11.2655339201        0.2154735861        1.6178649130
  O        14.8702230768        3.6859173731       11.5087605595
  H        14.6034853520        3.9128039174       10.6340648127
  H        15.0025240612        4.6035180182       11.9225330027
  O         7.0048325381       -6.6612532627        1.4387251515
  H         7.4710247032       -7.5511165517        1.3761095263
  H         6.8002516821       -6.6278143216        2.4257378736
  O        11.7880615885       -1.7994982386        8.4957895003
  H        11.0445939727       -2.0670012557        9.1178475674
  H        12.2281069902       -2.5892844910        8.1624384587
  O        11.6562744041       -7.9033385906        3.5615870039
  H        12.1311235736       -7.9245851038        2.6773177012
  H        12.2333378863       -8.4952545062        4.1158436263
  O         7.2853861925        1.7779436486        9.1162214388
  H         6.6475481361        1.4141826025        8.3399574911
  H         7.4729689948        0.9556265575        9.6195393571
  O         3.9793828097       -0.5764131832       13.7435086595
  H         3.4572802252       -0.7249829139       14.5706929207
  H         4.2341268399        0.4356026651       13.6075194273
  O        12.1127973977       -5.8686712570        9.8582365355
  H        13.0600236047       -5.5727281599        9.8687193915
  H        11.8144784623       -5.9129638310       10.7720009925
  O         9.8568025790       -2.4277693061       10.3939945566
  H         9.1919864918       -3.0931084547       10.0514364622
  H        10.0439220134       -2.6837601367       11.3328640482
  O        14.7712505454       -1.4910540440       11.8448627566
  H        15.1816701081       -1.9064464597       11.0235349056
  H        15.5006602095       -1.1780237407       12.5049610052
  O        13.3243483001       -5.1272874526       14.2246054798
  H        12.5606808769       -5.5220547924       13.7556390134
  H        13.2816581711       -4.0849664350       14.1948626380
  O        13.2103397831        1.7534576908       14.7755393603
  H        13.9734384512        2.4755622922       14.9897579999
  H        12.8796178012        1.5527843134       15.6653976890
  O        10.6060878444        4.7078444894        7.0896597140
  H         9.9691414235        4.6126979982        6.4096296079
  H        10.3361675105        4.0099210041        7.7386281708
  O         7.5781223289      -11.0868942086       13.2492165899
  H         7.9659909360      -11.6444718277       12.4700725820
  H         6.5711363414      -11.0159145676       13.0519288262
  O        14.3717617586       -0.6261156523        3.0828203573
  H        14.3196060754       -0.6144535809        4.0997650308
  H        13.9128442016        0.1956020191        2.6931637116
  O         8.6350255483        5.4729113288       10.8525065773
  H         9.1616743041        5.0650492837       10.1393896066
  H         7.6945331798        5.1048578377       10.7392258269
  O        16.7177283650       -0.7521742707       19.5027041435
  H        17.6294912577       -0.8268238164       19.9112909693
  H        16.9215892576       -1.4172296809       18.8024259390
  O         5.1213612354       -2.8910845462        5.5490449887
  H         6.0382032802       -2.7758158071        5.1257519621
  H         5.2261257767       -3.5836074130        6.3286634037
  O         7.6108296934       -2.2745778872        4.5297207853
  H         7.8605464308       -3.2186813958        4.5949328192
  H         8.0886164035       -1.8729778884        5.3210298450
  O        15.3454146435       -5.9929222487       12.4106244862
  H        15.1497594573       -5.7412935466       11.4958925395
  H        14.4844231785       -5.7393978082       12.9058062154
  O        18.7414230400       -8.4440021527       10.5268839510
  H        18.2189157769       -8.7452199820       11.2817892787
  H        19.0334877930       -9.3079519462       10.0719373468
  O        13.2074210443       -3.6484375583       19.4473644297
  H        14.0794044891       -3.2428488980       19.2427543865
  H        13.4323849322       -4.6465184035       19.5094692090
  O         5.9645617637       -4.8904840805        7.4259863249
  H         5.3133824129       -5.5311294993        7.7722470588
  H         6.5835912577       -4.6733038698        8.2083353086
  O         9.7320815939       -9.9713234437       15.5754967897
  H        10.3520634806       -9.2274195290       15.5933636971
  H         9.2549312749       -9.8558346188       14.7316340252
  O         5.9388933144       -2.4205868625       10.5189935317
  H         6.4114136219       -3.2381279370       10.2008686264
  H         6.0020204462       -2.4694528105       11.5085721224
  O        11.3384277396       -2.0923152393       16.8431075700
  H        11.3078932578       -1.2795731144       16.3445183799
  H        10.5551862347       -2.0767637539       17.3967967244
  O        10.2220215973       -5.0639096186        8.2300964748
  H        10.0658930281       -5.8827831340        7.7485280860
  H        11.0549950378       -5.3593387984        8.7710544608
  O         9.0385102987       -2.5016252947        7.0517202466
  H         8.6441743834       -3.4042118136        6.6290789975
  H         9.6961664596       -3.0269297003        7.5770518320
  O        23.4587494385        0.6770047640        6.8402796134
  H        22.9774497048        1.2962343817        7.4758415448
  H        23.5825121158       -0.1613086744        7.3061609739
  O        17.1203944673        3.3688878102        4.8100235241
  H        16.5228505187        3.4929858187        5.5996504689
  H        17.8047453427        2.7228247223        5.1719279956
  O        16.3248300726       -4.7764791728       16.3494179837
  H        16.8220502199       -4.6324342012       15.4857448703
  H        16.7684086652       -4.0758784610       16.8857445956
  O        16.7415539088       -6.6926448319        8.5001580308
  H        16.2204813608       -7.2756125839        7.9446294375
  H        17.1723946020       -7.3221002409        9.1434131533
  O        13.1314264987       -6.6547503402       18.6442003645
  H        12.2546843166       -6.9730971588       18.7132634041
  H        13.2798443397       -6.5741144830       17.6149581137
  O        15.1609311675       -8.2730675102        6.9360381700
  H        14.6435315593       -9.1375996188        7.2402489067
  H        14.3846029428       -7.8056374978        6.6608596651
  O         5.0626734321       -4.7421465254        0.9251457220
  H         5.6513937406       -5.5390109616        0.8939052771
  H         4.1706416616       -5.1939244626        0.5234714335
  O        13.9517350150       -1.2294724328       18.1789787345
  H        14.1642145349       -0.5779402122       18.9524649602
  H        12.9690002281       -1.4257703580       18.2198147594
  O        10.6828424646       -5.4256903714       17.0371128427
  H        11.2423769432       -6.2532972050       16.9259344754
  H        11.2422598832       -4.6930250364       17.2561245210
  O         8.4372890748        4.3623879803        5.4539371688
  H         9.0001679595        4.2027489319        4.6778656352
  H         7.6407072386        4.8851139345        5.1201760661
  O        12.9283769292       -2.0672513605       13.8115816904
  H        13.3185468196       -1.6619017504       14.5893956124
  H        13.5645204785       -1.8881204678       13.1182038092
  O        18.5234506755        1.4813834864        6.3908228053
  H        19.3197047043        1.1413617402        5.8199954459
  H        17.8271635046        0.7645941413        6.3480865881
  O        14.8040041737        1.2742269684        7.3070013499
  H        14.4009675341        1.0932443811        8.2277822627
  H        15.5664104202        0.5930632987        7.2718968740
  O        13.2363177597        0.2423727805        9.7230217358
  H        12.7376153994       -0.5951527319        9.2693425252
  H        13.6408952981       -0.2021925843       10.4678843239
  O         8.4032993932        0.4994890460       17.3205960075
  H         8.8305398742        1.0693027532       16.6892257728
  H         8.9905278309        0.5058450469       18.0779404859
  O         7.0276969341       -1.0603536722        8.2210085007
  H         7.7367006822       -1.6096249509        7.7929854466
  H         6.7856902417       -1.3389423757        9.1143584533
  O        20.5589584148       -4.8643716531        5.6212547311
  H        21.3118642372       -5.5295928764        5.5894469429
  H        19.9298119142       -5.1771020287        6.3273307730
  O         8.2245327280       -4.4499799953        9.6603576672
  H         8.2216597373       -5.2169651144       10.2911996159
  H         8.9461833080       -4.8181911698        9.0924357958
  O         3.4956550476       -2.3475286407        9.4965354288
  H         3.6695166266       -1.8640110038        8.6726021408
  H         4.4291558000       -2.3718437888        9.9238248863
  O         9.7273252001        2.9545268305        8.9476742140
  H         8.7905963937        2.6800296355        8.9739045843
  H        10.1881631533        2.4472611410        9.7163867646
  O        12.5339188156        1.9851571705        4.9665881431
  H        11.8434001825        1.6202085997        5.5380752246
  H        13.4495301424        2.0273107446        5.4404383531
  O        11.5709765269       -6.5573473823       12.8785659239
  H        10.6449785010       -6.4697242627       13.2222790296
  H        11.7494902344       -7.5741525008       12.8313232111
  O         9.5224921520       -5.4559698133       14.3480215128
  H         9.8098726350       -5.4417730469       15.3170938804
  H         8.5942188486       -5.6704336678       14.2497029704
  O         1.9120138150       -6.6327433370       16.2839675114
  H         1.6037618979       -6.0349869649       15.5548599064
  H         2.5806140633       -6.0078838447       16.6105029970
  O        17.2251971560        2.3395334778       13.0754155398
  H        16.6374987428        2.5981186756       12.3891342800
  H        16.9042159559        2.7830961864       13.8661637375
  O        10.5291505759       -2.8494756987       13.0613669249
  H        10.3024147599       -3.6621330383       13.6139090571
  H        11.4560887206       -2.5220495224       13.3486608048
  O        18.7230221979       -6.8820373956        4.2189370531
  H        18.0393059508       -7.5601721283        4.3601451886
  H        18.4143132605       -6.0394294214        4.6631121823
  O         2.9948588173       -8.9407985551        2.7830458472
  H         2.8406777874       -7.9088181447        2.8399977622
  H         3.4371564428       -9.2216220168        3.6593601546
  O         8.7989181954       -8.6786402571        0.8072106750
  H         8.2362483908       -9.4499354975        0.5562346125
  H         8.8101643059       -8.0481528846        0.0206604888
  N         8.3309301024       -1.3406306959       14.3176005387
  H         8.1682560844       -0.3774550601       14.1119692980
  H         9.2856965816       -1.5331468806       14.0563561156
  H         7.6054776038       -1.9297563971       13.8610096934
  H         8.1846340524       -1.4625316552       15.3577667055
