     194
 CELL 12.4294 12.4294 12.4294 90.0 90.0 90.0 i =    32820, time =    16410.000, E =     -1097.1256116610
  O        -6.1394434126        4.1475272987        8.2295882382
  H        -6.5202341434        3.7345629290        7.3909439257
  H        -5.3640565655        4.7683558078        7.9606984784
  O         0.5420510337       -9.2259522736        3.8800965681
  H         1.4622735927       -9.0283751095        3.4986733707
  H         0.7388171275       -9.5742790843        4.7343070891
  O        -3.0421167416       -8.7412934670        8.0678249279
  H        -2.8257706844       -7.7722654480        7.9419040448
  H        -2.1488234890       -9.2351630209        8.2894282442
  O        -7.6371111582       -0.8157054497        8.4752634302
  H        -8.2889715025       -1.5004831737        8.7203719104
  H        -7.8335495160       -0.1370171603        9.1896438189
  O       -16.4133279512       -6.1535489616        8.0104156102
  H       -16.1441084237       -5.7770195623        8.9474232647
  H       -15.8199394420       -5.4199607138        7.4135584020
  O        -1.0402152626       -2.4834942901       15.5183071065
  H        -0.6278844029       -1.8780731395       16.1654157285
  H        -0.4292037032       -2.6787283720       14.7507602042
  O        -3.1029210605        3.9178118715       -1.4657521636
  H        -2.2528784427        4.4137984763       -1.5245448545
  H        -3.3602018512        3.8286458321       -2.4488500046
  O        -0.5938743102        5.3706070991        5.0372584287
  H        -0.0762352338        4.8854690268        4.3128489055
  H        -0.9055558890        6.2502389791        4.6999113844
  O        -7.7608855721       -3.4778111482        0.5826213394
  H        -7.0667768907       -4.1860210161        0.4732864819
  H        -7.6513956607       -3.1759835354        1.5264388750
  O        -2.8100521306       -0.4796609704        2.5300089149
  H        -3.1338151435       -0.5005658070        3.4745778477
  H        -2.3364380851       -1.3286456281        2.3467417860
  O        -0.2476982140       -3.8216693482        0.6372849629
  H         0.4688285086       -3.9161211835       -0.0290626439
  H        -0.3520361604       -4.7888739003        0.9261778937
  O        -5.5349637305        4.9979733152        4.7511674667
  H        -5.0525310259        5.5876555139        4.1695948072
  H        -4.9500776691        4.3297256507        5.0364242943
  O        -9.5984444049        2.8706908995        9.0146239124
  H       -10.3486166788        2.5291107508        9.6083723225
  H        -9.4869558041        2.0839949885        8.4722855922
  O        -1.8986341946       -4.6540802957        4.3911274713
  H        -1.2696480772       -4.0072980813        4.0123975460
  H        -2.4170928635       -4.2398043746        5.0875301346
  O        -4.0997249443       -0.5617012803        5.0913788812
  H        -4.6084645152       -1.4191638281        5.0123574849
  H        -3.4293601726       -0.7654206520        5.8111801108
  O         1.1932271999        2.0651529138        6.4067070524
  H         1.9917525648        1.4685120681        6.5156565373
  H         1.6322332029        2.9747131588        6.5415156093
  O         0.8126169034       -0.4340848592        4.5635024838
  H         0.3268019840        0.2903120044        5.0737853398
  H         1.0939922189        0.0364692678        3.7062969532
  O        -0.7784247707        5.8453875439       10.5594639138
  H        -0.3370755656        6.1796393671        9.6880427638
  H        -0.0815145431        5.9236222590       11.2593547612
  O        -2.6424865212        4.8063903126        2.9062576635
  H        -2.5164247436        3.8311591545        3.0126715776
  H        -2.3980525412        5.1526738552        3.8264302832
  O        -7.5498647177       -7.1262332096       10.3834722250
  H        -6.8421060766       -7.1825727413       11.0747725335
  H        -7.2064710069       -7.6156884508        9.5146359223
  O         0.6732235595        1.6982246117       -1.9689951967
  H         0.8797897120        0.7374737279       -1.9877770232
  H         0.7728028880        1.9783813663       -1.0192437635
  O        -6.4682359895        7.0367054267        6.9247729559
  H        -5.5820911028        6.7400500095        7.1215564737
  H        -6.9598456987        6.2172940000        7.0777178897
  O         2.1689670090       -0.5263588764       12.1127444453
  H         2.1779484947       -1.4941854997       12.0983413729
  H         2.9653673270       -0.1938699631       11.5659740188
  O        -6.3508309508       -1.1493871018       -0.7452154259
  H        -5.8309306674       -0.6478507586       -0.1183909995
  H        -6.9114585332       -1.8247514009       -0.2961592663
  O        -7.2178163707        4.0534324462        2.0631661312
  H        -6.8270624028        3.4120719480        2.6642467183
  H        -6.7017531404        4.8856608377        2.0577671101
  O         1.6692310916       -2.2317093877        6.2694068159
  H         1.9699136473       -2.9222620837        5.6965266440
  H         1.2744108286       -1.5560762670        5.6355609001
  O         3.9665743765       -6.9993299142        5.2646057910
  H         3.4647631094       -7.3611940569        6.0686658247
  H         4.8191351523       -7.4230137425        5.1500966882
  O         0.0391103461       -1.3053448938       10.0972433771
  H        -0.8692260296       -1.2943786974       10.4149661134
  H         0.6413736961       -1.5473672665       10.8191770471
  O        -7.7424316007       -2.7090110414        3.0512916609
  H        -8.4463294878       -3.2912504818        3.4024113057
  H        -6.8892822396       -2.8110396878        3.5626271881
  O        -4.1521771991       -4.8448254476       10.3509503742
  H        -3.5489143773       -4.3160287474       10.9669483900
  H        -4.9268312862       -4.2479498106       10.2601049880
  O        -8.8801355971        0.5899455407        6.5375611899
  H        -8.9018250455        0.2019098446        5.6472919443
  H        -8.4991490428       -0.0253652838        7.2276411867
  O        -3.8697026180        1.3194503258       10.9498455499
  H        -3.4432559242        2.1698443783       11.0590742365
  H        -4.3080863776        1.1402940790       11.8183767943
  O        -3.6985317106       -4.1870237901        2.3242148937
  H        -4.2927755215       -5.0273966805        2.2715435384
  H        -3.1597931421       -4.3155349322        3.1219128969
  O        -5.8647111783        1.5744791447        3.5508145668
  H        -6.4934807335        0.8991381300        3.8741432725
  H        -5.0596362428        1.5314216754        4.1231569021
  O         7.4337579741        0.5986503366        0.9646955107
  H         6.9530933229        1.0705049936        1.6791304934
  H         8.2417589940        0.2570121340        1.3645067310
  O         4.1133413642        2.8687581616       -0.6102346194
  H         4.5254858418        3.1973093792        0.2734648828
  H         4.3558900909        3.4963061550       -1.3022743849
  O         2.2122460781       -3.3860818419       11.5559214605
  H         2.6626976527       -3.0686996099       10.6873285595
  H         2.9050124567       -3.3676417640       12.2558622404
  O         2.8868946603       -4.1003412684        4.5362574696
  H         2.5829882484       -4.7672138233        3.9163612600
  H         3.5923655939       -4.4926649851        5.0642845130
  O        -2.9685462229       -3.2801554777       12.4046909993
  H        -1.9387706513       -3.3701710109       12.4594800722
  H        -3.3158912180       -3.4642484157       13.3110150598
  O         2.0329027351       -6.2172135807        2.5819777400
  H         2.3046788969       -7.0547113807        3.0431988308
  H         2.4156773239       -6.2580025730        1.6773784655
  O        -9.1678718305       -2.8312097127       -3.1800824199
  H        -8.3107916760       -3.3543522812       -3.1962878607
  H        -9.7654942675       -3.0317507438       -3.9100650742
  O         1.0183613675        3.1782528208       13.0144987014
  H         0.3320683181        3.8805793566       12.8520423095
  H         1.8383301338        3.7189971621       12.8574376379
  O        -2.6622889706       -1.2698562540       10.6577436006
  H        -2.8368152491       -1.8356195382       11.4294537515
  H        -2.9486402737       -0.3579536722       10.8952244785
  O        -4.9564740275        6.0898710404        2.0405687801
  H        -5.0160936088        5.8590243411        1.0508831034
  H        -4.2489936693        5.4960872294        2.3785997568
  O        -0.8938447241        2.0819666043        8.2250381189
  H        -0.3237507721        2.0918639344        9.0558279905
  H        -0.1906042252        2.0552102658        7.5449895316
  O         2.9762987729        3.7341348833        3.4670954548
  H         3.5923561298        3.8332006659        2.6375101177
  H         3.2402014375        4.3507341380        4.2482653838
  O         2.0383911085        0.6201737400        2.3488229337
  H         1.7801331204        1.5171769543        2.1447536878
  H         2.1565600958        0.1841825308        1.4722270977
  O        -1.7019311483        2.1248765303        3.1675579985
  H        -1.7777637942        1.2733008347        2.7270970757
  H        -0.7652458236        2.4174471700        2.9951287280
  O        -5.1769885417        5.5267233248       11.9424257041
  H        -4.9825331551        6.2994835556       11.2955398223
  H        -4.4485383691        4.8832339714       11.6755197494
  O        -7.1145728524        2.6389378106        6.2709619429
  H        -7.0361582305        2.7074878782        5.2732244477
  H        -7.8258104234        1.9665506076        6.3338535631
  O         4.1648227697        0.4631732573       -1.6346824856
  H         5.0469685882        0.0652898043       -1.3335669153
  H         4.1799615375        1.4472124004       -1.3427278403
  O        -5.3764671496       -3.1817037303        4.2684505817
  H        -5.5172831089       -3.8954555981        4.9711840693
  H        -4.8684470378       -3.5871770900        3.4896819888
  O        -8.0491863414       -0.0263065608        4.0230553109
  H        -7.8916612641       -0.9309060255        3.6750043817
  H        -8.7773197401        0.3079923654        3.4040292317
  O        -3.5332961443        2.7105342762        5.4257406490
  H        -3.1491460019        3.0825136452        6.2640775411
  H        -2.8814372176        2.5921958635        4.7464375056
  O        -0.4047594311        5.6979321679        1.2429014943
  H         0.4169417234        5.8636861384        1.7418774332
  H        -1.0896100606        5.3012129874        1.9256975141
  O        -2.9816197115       -3.7382266086        6.9284644598
  H        -3.5508936429       -3.3034379318        7.6252797316
  H        -2.0659497592       -3.4762316144        7.3209283925
  O        -4.2837654339       -2.3096329450        8.7614938582
  H        -4.1301574788       -2.2022552515        9.7569678611
  H        -5.2635471866       -2.1570862287        8.6295080840
  O       -12.7273425597       -3.2966000507        7.8726148538
  H       -12.0332364694       -2.8623162121        7.3255262991
  H       -12.7643482047       -2.7786695435        8.6846948359
  O         2.3908961187        4.7918203645        7.3610501942
  H         2.5618446520        4.3746296245        8.2600474750
  H         1.6790210368        5.4843028530        7.5047065269
  O        -2.6661147946       -0.1239387664        7.6345807810
  H        -2.9408130137       -0.9133909021        8.2189744430
  H        -1.8621326804        0.3079202175        7.9487261259
  O         2.3567249560       -6.1414889557       -0.2755547511
  H         2.9092031829       -6.7396970827       -0.7641111119
  H         2.4994816113       -5.2395527761       -0.6425737906
  O       -12.8910038717       -6.3099696555       -4.6374747394
  H       -12.8005866333       -6.8921479574       -5.4327811705
  H       -12.8156472770       -5.4048318233       -5.0817988944
  O        -6.9664189616       -4.3503707770       -2.9260253155
  H        -7.2939526017       -5.2121549748       -2.5248694694
  H        -6.7406514291       -4.6629761165       -3.8446893394
  N        -4.9710468252        1.4759327428        8.3306477792
  H        -4.9390952908        2.5234659221        8.1478299762
  H        -4.0785688874        1.0303577452        8.0607593726
  H        -5.6551715986        1.0227145661        7.7599433622
  H        -5.1698259875        1.3833346826        9.3360557724
