     194
 CELL 12.4294 12.4294 12.4294 90.0 90.0 90.0 i =    28420, time =    14210.000, E =     -1097.1401434140
  O        -9.4239127043        3.7569753378        6.3217719792
  H        -9.3302840205        2.7994010825        6.0140802333
  H        -8.9413945470        4.2533701887        5.5620888377
  O         0.8081270854       -7.9224063339        4.6139261782
  H         0.8371476986       -7.0031974641        4.8973961798
  H         1.3674795719       -8.2980208754        5.3222600634
  O        -4.5058342560       -7.6305142315        7.0584823399
  H        -4.7143013629       -6.6165711595        6.8561495492
  H        -3.5764447758       -7.6394459270        6.6874205081
  O       -10.9396225879        1.4263245633        6.9399303325
  H       -11.4336894628        0.6727305114        7.2476892161
  H       -10.1863268105        1.3477281551        7.5536541978
  O       -17.4969206870       -5.0398356273        6.7540584130
  H       -17.8569716709       -4.6650553990        7.6085669644
  H       -17.2783245815       -4.3418125035        6.1540559195
  O        -3.6297187117       -2.1353955383       13.8231760689
  H        -2.9958136721       -1.4401246613       14.0148766375
  H        -3.4367608544       -2.4636219721       12.8981255783
  O        -5.1215038283        3.8238416117       -2.8678164228
  H        -4.4344244761        4.0499868227       -2.1530742061
  H        -4.9256744530        4.2514865439       -3.7799995531
  O        -1.9106543445        4.5906193269        6.0519841994
  H        -1.1637713713        4.3542141883        6.6955142217
  H        -1.7226620539        5.4304483128        5.6348786850
  O       -10.7996034246       -3.3404025069       -1.2418866762
  H       -11.1830536626       -4.1882788662       -1.4965065756
  H       -11.0917781005       -3.2087495190       -0.3214140213
  O        -4.1760456976        1.8073734319        0.9632199532
  H        -4.8995089521        1.1815267270        1.0303618703
  H        -3.3947395980        1.2838157699        1.3968397411
  O        -2.7234355619       -3.1099429620       -1.0135623560
  H        -1.9700343391       -2.8076328958       -1.5830726804
  H        -2.4081411996       -3.9466420683       -0.5939852386
  O        -8.0823513431        4.7583849364        4.0463571906
  H        -8.3616058189        4.3530897096        3.2286890283
  H        -7.2576601068        4.3287073446        4.3332741900
  O       -12.3506688119        3.7706914797        7.7329871212
  H       -12.9154647039        3.3783882400        8.4242749760
  H       -11.8067594488        2.9951423407        7.4453854769
  O        -4.7190930514       -4.0797271016        2.9040044615
  H        -4.2023864770       -3.4583214105        2.3391181808
  H        -4.8189376744       -3.4894975889        3.7379020204
  O        -5.6587350476       -0.4264703401        2.6791718747
  H        -5.0572935943       -1.0048736773        2.2919027376
  H        -5.1616397443       -0.0260562438        3.4344625227
  O         0.9075313336        1.4120914910        4.2483917389
  H         1.5188029784        1.8587513524        3.6471430444
  H         1.1768507577        1.8425687334        5.0809756679
  O        -2.1663190214        0.1438540687        2.0302647108
  H        -1.7083149750       -0.2414222905        2.8168375346
  H        -1.4406607240        0.3282234966        1.3912247202
  O        -2.6410124852        6.6047909285        9.4540924495
  H        -3.4132172146        6.4497810828        8.9042637398
  H        -2.9750648352        7.4023595294        9.9790708271
  O        -4.4871586528        5.9687494173        1.4778772186
  H        -4.3183201397        5.2692792561        2.1810051891
  H        -4.5400856803        6.6893151546        2.0996560472
  O        -9.7502197332       -7.5324653259        8.8605427466
  H        -8.8356317747       -7.2768447490        9.1802137186
  H        -9.7267016972       -8.1146122274        8.1017221827
  O        -1.6605956801        2.3094239337       -2.8580204836
  H        -1.0344581997        1.6454095392       -2.4933126403
  H        -2.0603403006        2.6745394651       -2.0531111161
  O        -7.9765433989        7.3934775245        5.0146019666
  H        -7.1423435926        7.3631002972        5.4495049293
  H        -8.1492807655        6.5408535257        4.4921754197
  O         0.1250023878        0.1621332516       10.4613545553
  H        -0.0937796314       -0.7958421969       10.3168732606
  H         0.9090698637        0.3980114725        9.9126115162
  O        -8.2020284055       -1.9459928141       -2.8267542654
  H        -7.8249717576       -1.8858079818       -1.9170846251
  H        -9.0284852286       -2.4555535676       -2.6895055526
  O        -8.4709520605        3.7314828663        1.4082277832
  H        -8.0347907923        2.8141503130        1.5472463281
  H        -7.7602900086        4.3814151281        1.0767139624
  O        -0.9555664419       -1.3252363408        4.1355014208
  H        -0.9573169209       -2.2647259797        3.7434066654
  H        -0.0335100667       -1.2315223008        4.4233608756
  O         1.6472519569       -4.9990559658        3.8625057604
  H         1.8868968762       -5.1557676988        4.7775236874
  H         2.4689449880       -4.8148154410        3.3946241251
  O        -3.3151493140        0.4952161324        8.2690855844
  H        -4.0378808861        0.0966956137        8.8062525177
  H        -2.7546792304        1.0961110237        8.7685588275
  O       -11.0248773308       -2.7076652872        1.5523087713
  H       -11.7789816990       -2.9520459234        2.1852382651
  H       -10.2092910501       -2.9994962166        2.0631164334
  O        -6.4041870104       -4.4474739085        8.9126459457
  H        -6.0742023298       -3.8381101892        9.6347338304
  H        -7.1506499747       -4.0567961200        8.3635991241
  O       -10.1036782909       -1.1751581377        4.8606539225
  H       -10.4139139491       -0.3464912630        4.4937544768
  H        -9.6710693770       -1.6742573827        4.1358849663
  O        -6.8606709653        1.9098368179        9.6712818933
  H        -6.2078820208        2.7121087797        9.7366107125
  H        -7.7452414902        2.2655898549        9.7378196788
  O        -6.7030162116       -3.9457262181        1.2718859628
  H        -6.9282408543       -4.8686810076        1.2441517324
  H        -5.9361791671       -3.8995537691        1.9375149428
  O        -7.9260602297        1.1316834005        2.5257841516
  H        -8.7005994527        0.6748146449        2.1236422263
  H        -7.2225558220        0.4623546558        2.5967688819
  O         4.6661500640        0.0712747363       -0.7973780833
  H         3.7927479359        0.0157235574       -0.3749557272
  H         4.8136580112        0.9993295780       -0.7580707365
  O         2.8965007634        3.1364540358       -1.3955010554
  H         3.3393091501        3.5666481780       -0.6035485484
  H         2.6650068726        3.9152131193       -2.0114115052
  O        -0.4627089188       -2.3018410387        9.6866343134
  H        -0.3094681077       -2.0730662600        8.8042642630
  H         0.3518980036       -2.6957832429       10.0944949699
  O        -0.5944268088       -3.9778596259        3.0248670544
  H        -1.0109167477       -4.5398742297        2.3233789252
  H         0.2710334415       -4.4627556761        3.2930560776
  O        -5.4711108432       -2.6761987840       11.1770354311
  H        -4.4897746964       -2.8899318921       11.1589123598
  H        -5.7926237383       -3.1813633469       12.0126592260
  O        -0.5576524298       -7.3586869469        0.0052678000
  H         0.0548756037       -7.9587884815        0.5822882434
  H         0.0031346567       -6.9088006159       -0.7234761288
  O       -11.4681256230       -1.2268649120       -4.9572650027
  H       -10.7479549635       -1.4144750695       -4.3270335722
  H       -11.0647706776       -1.5414705983       -5.7968264675
  O        -3.2625104588        3.4768019344       11.5426000122
  H        -2.7019058133        4.0477161343       12.1440817402
  H        -3.6417952020        2.7976617077       12.2386089340
  O        -5.5029841267       -0.3917140298        9.6598301227
  H        -5.6631931407       -0.9947580951       10.3922092986
  H        -6.0053055024        0.4436800459        9.8356014226
  O        -7.0108756842        5.5219747213        0.3247640834
  H        -7.2288778582        5.6748042855       -0.6364957393
  H        -6.0100811520        5.6816099695        0.5467271813
  O        -1.9646676118        2.5216805330        4.4383859675
  H        -1.8693367431        3.3634078977        4.9509736257
  H        -1.0450874194        2.3097411775        4.1609504164
  O         0.9954434808        3.6204696068        1.8130209659
  H         1.9213531288        3.6907712250        1.4755212474
  H         0.9455837432        3.9866967708        2.7763238949
  O         0.0849462040        1.1998853835        0.6624249635
  H         0.3785157481        2.0602590422        0.9811856181
  H         0.1754611636        1.1104252672       -0.3018646138
  O        -4.2866748487        3.5399998724        3.0882933265
  H        -4.4972307950        2.9110416356        2.3676184934
  H        -3.4370024743        3.1657831027        3.3349860376
  O        -7.5298249434        5.6649228893        9.9826069207
  H        -7.1681336176        6.5378190896        9.6015639825
  H        -6.6860020752        5.1288499045        9.7465131159
  O        -8.4867204070        1.2212077755        5.3144966602
  H        -8.3242643210        1.0204903751        4.3365672109
  H        -8.8000561360        0.3905599697        5.7632995336
  O         2.7679833830        0.8923101036       -3.1497510707
  H         3.3087970240        0.1266325303       -2.8474498568
  H         2.6584452874        1.5560526104       -2.3935375152
  O        -8.6037289434       -3.0761382997        2.9239068802
  H        -8.2785912382       -3.4547843397        3.7917636298
  H        -7.8183469281       -3.2588792363        2.2822700676
  O       -10.0008302340       -0.1335501834        1.3851430604
  H       -10.4245488516       -0.9877901924        1.5296790840
  H       -10.7633666058        0.4691389366        1.3135825427
  O        -6.0209560439        3.7394216419        5.0722670931
  H        -5.6360510952        4.2504712119        5.8157540317
  H        -5.2308555323        3.7224849302        4.4030634314
  O        -1.9787244766        7.3372605809        0.6221239032
  H        -1.3464825791        6.6053399231        0.4714795443
  H        -2.7403581712        6.8336955278        0.9724962195
  O        -4.8347843348       -2.6587909599        5.2177747471
  H        -5.6072992161       -2.1220017601        5.3370334250
  H        -4.1066724563       -2.1688464594        5.6685929656
  O        -6.6752708304       -1.3006375242        7.0456333489
  H        -6.2845785935       -1.1896137373        7.9229209927
  H        -7.5609570608       -1.6656154383        7.2208448801
  O       -15.0880874750       -1.5089529870        6.6128893971
  H       -14.3731694910       -1.2572704715        5.9821219337
  H       -15.2094361454       -0.7901622742        7.3734077382
  O         1.0530400380        6.7543258440        6.7157339043
  H         1.2261555030        6.0476786897        7.3920701392
  H         0.1210705209        7.0074960842        7.0203636896
  O        -3.9530216862        0.6693000970        5.0984397300
  H        -3.5456164010       -0.0652176420        5.6170503494
  H        -3.1564048717        1.1369003855        4.6943349645
  O         0.2974052575       -5.9956108625       -2.2679844730
  H         1.0039378217       -6.4074836767       -2.8934532793
  H        -0.5224919494       -5.7667943715       -2.7388471196
  O       -14.1093171386       -4.5688687459       -6.6444346069
  H       -13.7925495101       -4.2191389276       -7.4964506438
  H       -14.5317554232       -3.7841647659       -6.3115371443
  O        -9.0158311380       -3.7856481163       -5.0426846200
  H        -9.7399165282       -4.3684942451       -4.7301754497
  H        -8.7620317462       -4.1939198374       -5.9749680953
  N        -5.8881556023        1.4961471839        6.8455794931
  H        -6.0797731911        2.1161310609        6.0545809011
  H        -4.8755112173        1.5329978148        6.9605860098
  H        -6.1308115249        0.5369128093        6.5708178523
  H        -6.4967034715        1.5920382988        7.7330402345
