     194
 CELL 12.4294 12.4294 12.4294 90.0 90.0 90.0 i =    45220, time =    22610.000, E =     -1097.0982543534
  O        -1.3130870751        2.2321416772        9.9995148841
  H        -1.8494638223        1.8369972807        9.2573405272
  H        -0.3468874497        1.9673129355        9.8538119053
  O         5.5877977898       -9.5096624398        7.1925087308
  H         5.1578196467       -8.7144509597        6.7829254253
  H         5.8728332353      -10.0287696187        6.4273581489
  O         1.8039492052       -9.8286648918       10.1872595012
  H         2.3852643744       -9.1919849358       10.5557019437
  H         2.2124027863      -10.2870651542        9.4178235690
  O        -3.8026654068       -1.6764325209       10.5235279292
  H        -3.8027287293       -2.7271578144       10.5786309600
  H        -4.6070396398       -1.4211095063       11.0142490459
  O        -8.9373950701       -7.7375758557       10.9178124736
  H        -8.8428574246       -7.9027190026       11.9127059809
  H        -8.0701974065       -8.1047751708       10.5824938696
  O         4.1372247715       -3.3084449112       18.3474371815
  H         3.9209279791       -3.5838268344       17.4674597148
  H         5.0507064360       -3.1344142399       18.3089257440
  O         1.5576121076        1.5767374787        0.5311061349
  H         2.3833811262        1.9898205853        0.8035249583
  H         1.2248213721        1.8480799604       -0.3070377487
  O         5.9779976209        3.2772428709       10.0946651055
  H         5.8049613016        2.2875760178        9.9828163323
  H         6.4771237100        3.5736284169        9.2686632132
  O        -0.2986319946       -4.6846351084        2.0767600488
  H        -1.2284801874       -4.8374238913        2.3898745882
  H         0.2814133484       -4.6066237122        2.8711987792
  O         2.9589500559       -0.8584750055        6.8681093804
  H         1.9891856135       -1.1536345751        6.8298915847
  H         3.4750727015       -1.6942453652        6.7123279535
  O         3.9459701391       -6.2165213177        2.0251906091
  H         4.6302112485       -5.6031666390        1.6603235755
  H         4.3925991003       -6.9618064976        2.5003724116
  O        -1.1731391263        3.4132536398        6.7686208561
  H        -0.8839630466        4.0029603196        6.0239520819
  H        -1.7368258622        2.7415397908        6.3302195934
  O        -5.2806783006       -0.2657112580       12.8199891173
  H        -6.1833717963       -0.1771458977       13.2070789504
  H        -4.6420085873        0.4256013085       13.0890347881
  O         2.7340510476       -5.0448442639        7.3032503996
  H         3.4395178567       -4.4656147733        6.9428085107
  H         2.6081192228       -4.8762255302        8.2446989116
  O         0.0471844796       -1.5232485030        7.9324435113
  H        -0.3083807274       -2.4493561249        8.0644138956
  H         0.3886596668       -1.2998903769        8.8734070647
  O         5.6493127174        0.5217369323       10.2151684912
  H         6.2396965095        0.4678406996        9.4402390675
  H         6.2025392001        0.4054681558       11.0529385442
  O         4.9170048601       -3.0420169669       11.0052208913
  H         4.1551051725       -3.6907272872       10.7609171669
  H         4.5045840392       -2.1813572787       10.8036066011
  O         3.9013438091        2.3989995515       14.2140518658
  H         4.7319911088        2.9047568960       13.9682091947
  H         3.6885361552        2.8238493645       15.0697337187
  O         3.5198886465        4.7957260872        6.3888119871
  H         2.8825189364        4.1137722507        6.5083437203
  H         3.1408857055        5.6213113278        6.6987459095
  O        -2.0814392186       -8.6812903444       12.3062524098
  H        -1.2836091490       -8.9184416651       12.9173294546
  H        -1.7462648616       -8.9656061879       11.3811041401
  O         4.6542103994       -0.2083743110        1.1152932613
  H         4.5167144535       -0.8991909526        1.7505672668
  H         4.3586047111        0.6782835708        1.4930831882
  O        -0.2878540236        5.4989144204        8.6696130539
  H         0.4417798512        4.9013541465        8.6468186478
  H        -1.1697973368        4.9776934114        8.6799129175
  O         7.3166472477       -2.5223446099       14.8248672395
  H         6.6097467179       -2.9861177031       14.3282022854
  H         7.6278379513       -1.8265424571       14.1748003121
  O        -1.7827286663       -1.3958440398        2.2904394389
  H        -0.8255039195       -0.9120046961        2.2490674550
  H        -1.7854300558       -2.2231682659        1.7079956714
  O        -1.6436523511        1.8233821412        3.9006744809
  H        -1.1926297661        1.1538615581        4.4627583482
  H        -1.1691588330        2.6622689058        3.8504024693
  O         6.5578948390       -5.4280205097        9.7284945819
  H         6.6781383200       -5.5803455026        8.7468758046
  H         6.0620533134       -4.5640975952        9.8679220174
  O         9.4355361597       -7.7437391410        8.4921601449
  H         9.0430828744       -7.5493247998        9.3738211079
  H         9.3358664646       -8.6762006739        8.1941302141
  O         5.0092036497       -3.3733372822       13.7613484673
  H         4.2491951114       -3.1811193692       14.3093233929
  H         4.8456387885       -3.2302606991       12.7975022584
  O        -3.8208200506       -3.6489002941        6.8722680432
  H        -4.2897570822       -4.5411743205        7.0310174789
  H        -2.8902151528       -3.7838579644        7.2255890152
  O         1.5730162580       -6.9006635664       13.3964138952
  H         2.5721447518       -6.6620674954       13.4356022299
  H         1.1078304412       -6.0619068532       13.7031604553
  O        -5.1078130977       -0.2590479379        8.0582362692
  H        -5.4854818094       -0.8574927527        7.4069778894
  H        -4.6396212722       -0.8876057534        8.6917871152
  O         0.5836628308       -0.1746413069       14.7091947266
  H         0.6635113354        0.4029496088       13.9396374819
  H         0.7137859223        0.4430634759       15.4797285555
  O         0.8362565535       -5.1502592032        5.4614522189
  H         0.4032270627       -6.0109730265        5.3634852098
  H         1.4184106028       -5.1902568125        6.2695992594
  O        -1.3447777709        0.2769256480        6.3018903824
  H        -1.7024815068       -0.5455704230        5.8529040039
  H        -0.6276833345       -0.1826678315        6.8789885389
  O        13.9166938453        1.6323995113        3.8086011753
  H        13.9166962033        2.0613887358        4.7085769172
  H        14.8483703624        1.3408147105        3.7420530631
  O         9.1092493999        1.5706775181        1.2396677812
  H         9.6802108270        1.4210136800        2.0649124821
  H         9.4552999920        2.4912401953        0.9423899137
  O         9.0224889762       -4.8920398491       13.8408620116
  H         9.1017150703       -4.6223404422       12.8783140690
  H         8.2704372049       -4.3697102359       14.2296323881
  O         7.4410736111       -6.3139519821        6.9802659028
  H         7.2689858478       -6.6165397798        6.0947472595
  H         8.1658179524       -6.8945920881        7.3712275340
  O         2.8744838322       -4.3226904432       16.1782380381
  H         3.0960539424       -5.0856441725       15.6341501538
  H         2.1937393802       -4.7252998141       16.8049017833
  O         7.2529776318       -8.1681258314        4.3813171038
  H         7.7152670400       -8.9859520729        4.7447904720
  H         7.9067557386       -7.7787449425        3.7517040029
  O        -3.1976727926       -4.2624513807       -1.4623318218
  H        -2.3233759916       -4.7801710239       -1.4435678516
  H        -3.8451811896       -4.8521693480       -1.8724162775
  O         3.9401441011        0.6213055065       16.6230515405
  H         4.9095550250        0.5212166542       16.5704602166
  H         3.6131141696        0.0638060832       17.3051845716
  O         2.1671055268       -2.3257192703       14.1862782458
  H         2.2533624418       -3.0271102088       14.8890119240
  H         1.6029057008       -1.5209945763       14.5333160173
  O        -0.5621597672        4.6450252467        4.3318273543
  H        -1.4597493683        4.9373368029        3.9816766399
  H        -0.0283130294        4.3209736839        3.6029751992
  O         3.1801121703       -0.6694396819       11.2231259368
  H         3.5397132127       -0.3355907693       12.1219566845
  H         3.6148242279       -0.1016450220       10.5577768115
  O         8.2151396294        1.8544161307        4.9500187110
  H         9.0125410770        1.8819392026        4.3958054044
  H         8.4280874180        1.7583776899        5.9402789466
  O         6.5677756231       -0.0265250111        4.0994715193
  H         7.3962581468        0.4506356420        4.3543447917
  H         6.7585199969       -0.7377817650        3.4632295846
  O         3.4573669650        1.2331080354        8.2927031775
  H         3.5177451314        0.3893677397        7.7407705464
  H         4.1705067871        1.8635378380        7.8755221325
  O        -0.0734184871        3.6394152834       14.1764084263
  H         0.6341404576        4.3572058369       13.9652753056
  H         0.4385261435        2.8232411222       14.0285248861
  O        -2.9958350068        1.3912567631        8.0079377859
  H        -2.4555452132        0.8291382932        7.3964009131
  H        -3.8189468231        0.8122405462        8.2345763326
  O        10.0698540051       -1.7474410250        4.8717504898
  H         9.6153153452       -2.5392875860        5.2948369289
  H        10.1652679440       -1.7836240512        3.8687271828
  O        -1.1295876733       -3.9487914226        7.6727288223
  H        -1.0628298096       -4.6131571909        8.3627198498
  H        -0.5235687047       -4.3777895298        6.9970672242
  O        -5.9604644309       -1.8644797928        6.1887144289
  H        -5.0009234308       -2.2692746360        6.0992464132
  H        -5.9228072247       -1.2676044057        5.3704863213
  O         1.5749023913        2.7848788474        6.4021588924
  H         0.6902886844        3.0842188146        6.7251330431
  H         2.0328788109        2.2876693751        7.1448288635
  O         4.5330971491        4.2179784118        3.9247773437
  H         5.5560954152        4.1537076321        4.0606115247
  H         4.1686632720        4.8188729508        4.5858367443
  O         3.0019831729       -4.8225908853       10.5537398226
  H         2.3250327479       -4.5047068429       11.2291731083
  H         3.3057712711       -5.6762585776       10.9424088659
  O         1.0110303921       -3.5887766051       12.1720819383
  H         1.1663681762       -3.3106674186       13.1400629665
  H         0.4554012786       -4.3970693131       12.1599526183
  O        -6.0415372987       -6.1700271247       12.4152809916
  H        -6.3578617004       -6.2640623134       11.4566678523
  H        -5.1322156577       -5.9558130658       12.2637302421
  O         8.4339125827        4.9351194852       10.9636726777
  H         7.6050676085        4.4469429479       10.9044489104
  H         8.9623479788        4.4605739378       11.6136822727
  O         0.5402353596       -1.1523061884       10.8128000143
  H         0.6388254584       -2.0952170737       11.1875953041
  H         1.3863302575       -0.7362828783       10.9610253787
  O         9.7936039313       -7.1626655928        2.7888155494
  H        10.1901507102       -7.7515769736        2.0869142789
  H         9.3371867264       -6.4624957052        2.2741597374
  O        -6.2102050664       -8.5108710782        1.0622708362
  H        -6.0728096239       -7.5261913167        0.7386593626
  H        -5.3274875460       -8.8521273783        1.3592599540
  O        -0.7791709196       -5.8002595148       -1.0552436879
  H        -0.9037452158       -6.5175842592       -0.3502503507
  H        -0.5118808261       -6.3375546770       -1.8348192703
  N        -1.9273636529       -0.2372470638       11.8297960090
  H        -1.7350407088        0.7156542816       11.4843742536
  H        -0.9815826116       -0.7350805346       11.6749544802
  H        -2.6624939280       -0.6857973793       11.2336998270
  H        -2.2516726032       -0.2468613836       12.8083030672
