     194
 CELL 12.4294 12.4294 12.4294 90.0 90.0 90.0 i =    64420, time =    32210.000, E =     -1097.1514991403
  O         8.5883723634        0.1887013790       10.7621086639
  H         8.9591261868       -0.6980472503       10.5887298917
  H         9.2564706960        0.7796961592       11.2127194344
  O        13.2214373024       -9.3891521000        9.2971094793
  H        12.3830341180       -8.8804988810        9.1808145872
  H        13.0036669228      -10.3511663139        9.4417034440
  O        10.5851037487      -10.3351673207       11.3739226560
  H        11.0385813454       -9.7771968227       12.0599025365
  H        11.3706903702      -10.8127411574       10.9804518671
  O         5.7193617153       -2.2288656702       12.8878416517
  H         5.1194428219       -2.9135611638       13.2380703701
  H         5.0905663698       -1.4846030118       12.7763699108
  O        -0.4329307980       -8.9424306547       13.1156439733
  H        -0.2412861563       -9.3388299416       13.9741894368
  H         0.3999448445       -8.7341129944       12.7121259768
  O        14.7502029882       -5.0446168937       21.6925467428
  H        15.3895737689       -5.7410877581       21.4304324445
  H        15.2694085791       -4.2169814299       21.4873527021
  O        10.6693484079        0.1713197915        2.3486455205
  H        10.4504029335        1.1599860850        2.5013857704
  H        11.6277138457        0.1263109364        2.2554202643
  O        14.2938036972        3.9968920529       11.7186856447
  H        13.8333227490        3.9074977442       10.7783875943
  H        14.6779116955        4.9598048092       11.7527153191
  O         6.7018426289       -6.4671054994        2.3163304133
  H         7.0056040155       -7.3847895338        2.1774088223
  H         6.2530195956       -6.4233798980        3.2100195348
  O        11.3449163489       -1.6798944315        9.1718570256
  H        10.7523370082       -2.1512780110        9.8023732905
  H        12.0087182845       -2.2653142179        8.8081607082
  O        11.5129065637       -8.0996495462        4.1585224507
  H        12.3144724702       -7.6095966572        3.8103221565
  H        11.9252789609       -8.6547227561        4.8906851907
  O         7.3954475320        2.1308324001        8.9160738390
  H         6.9443830511        1.8183261100        8.0364009994
  H         7.8213145856        1.3099150693        9.3150506309
  O         3.5281320706       -0.3082634797       13.1530581096
  H         3.1095548861       -0.5174409609       14.0516458427
  H         3.4545653422        0.6953716056       13.0942607703
  O        11.9046463506       -6.3318572203        9.3707433607
  H        12.8435005216       -5.9918568133        9.5193681500
  H        11.4335399958       -6.2075423600       10.2230305370
  O         9.3792718999       -2.6441303126       10.7805585271
  H         8.9034451506       -3.4710229844       10.5921481176
  H         9.6730805522       -2.5786483019       11.7309621435
  O        14.3041934098       -1.3892612691       11.0937763075
  H        14.9930197085       -1.8920729680       10.5559861744
  H        14.7373817706       -0.9649019920       11.9440111657
  O        13.1656584242       -5.2408287191       13.4814911785
  H        12.5095642228       -5.7090476866       12.9635320484
  H        12.9424158855       -4.3014531110       13.4133559197
  O        13.4452130579        2.0761171495       15.2214373423
  H        14.1675730937        2.7406497058       15.0084368534
  H        13.2844586392        2.1476743992       16.2452560718
  O        10.4964516021        5.2165403190        6.8366363264
  H         9.8264159299        4.6419161046        6.2603182246
  H        10.6990956448        4.7736079108        7.6817969262
  O         6.6200171453      -11.3941778694       12.4053827625
  H         7.2237162876      -11.7798376278       11.6038443076
  H         5.8459506506      -10.9692163523       12.1521500139
  O        14.1860228233       -0.4965556755        2.7870432514
  H        14.2957629974       -0.9531388540        3.6385340890
  H        14.0026281253        0.5099598253        2.8819934349
  O         7.9574233738        4.8826769264       10.8187261254
  H         8.5408747165        4.4282116612       10.1830429213
  H         7.0190000583        4.6080904977       10.5591491739
  O        17.0855433222       -0.7516787365       19.8763127047
  H        17.9374611925       -0.9027659916       20.3744821863
  H        17.1497502038       -1.6003339534       19.2750796717
  O         5.2217246239       -3.0910251981        6.0995780821
  H         5.8259362884       -2.6195253743        5.4835987436
  H         5.6302754168       -3.7564822199        6.6167963881
  O         7.2207345996       -1.8370046549        4.3916317637
  H         7.5697367834       -2.7438260387        4.4769387859
  H         7.8591657159       -1.2979120200        4.8946503860
  O        15.4401310143       -5.8437553034       11.8753364077
  H        15.3676505293       -5.3967694095       11.0178466740
  H        14.5396691933       -5.5000730204       12.3655242703
  O        17.8371194791       -8.9931388554       10.2799036890
  H        17.2180966521       -9.3593374421       10.9690638780
  H        18.0963298359       -9.7600345688        9.7029675739
  O        12.7512427476       -3.5213605260       19.8266172484
  H        13.0828957081       -2.8522483755       19.1324959908
  H        13.4445951618       -4.2556607290       19.8513415399
  O         6.3259185129       -5.1094830999        7.3293738103
  H         5.6916996413       -5.7701555449        7.6736660841
  H         6.9494176470       -4.9775912626        8.0799769294
  O         9.7508784929       -9.7742887873       15.1780960073
  H        10.3196065086       -8.9865058060       15.3204652645
  H         9.1466793093       -9.5591746674       14.4479741680
  O         6.0849958070       -3.0504562185       10.1418825422
  H         6.7829185703       -3.8268224501       10.0724676208
  H         6.0925231344       -2.7021516497       11.1116834142
  O        10.8912117105       -1.8905463258       17.0578132507
  H        10.6275516611       -1.2754671690       16.2808987541
  H        10.1815249548       -1.6747944588       17.7089193948
  O         9.9407525539       -4.6692820108        8.0608913220
  H        10.0031187066       -5.4255368829        7.4994845443
  H        10.9426386313       -4.4900024645        8.1742936519
  O         9.3893977281       -2.1962902702        7.0704535961
  H         9.2758294401       -3.1928001049        7.0305176870
  H        10.0299153124       -2.0817841664        7.8262776328
  O        23.4894543963        1.3508430896        7.3242691073
  H        22.9546924549        2.1062016862        7.6829291360
  H        22.9993538444        0.5771941189        7.6041031728
  O        16.6722054013        3.0127638881        5.1697871222
  H        15.8960239700        3.2633102624        5.7365711517
  H        17.1485133304        2.2333320788        5.6167516871
  O        16.5594072472       -4.7933696361       16.4918480643
  H        16.8574710181       -4.5831158520       15.5759588287
  H        16.8959996871       -4.0839040473       17.1051806466
  O        16.8133533077       -6.8773000480        8.4107039694
  H        16.2313554230       -7.4985694703        7.9125520109
  H        17.1613263957       -7.4796824975        9.1436771273
  O        13.3245490027       -6.2592720393       18.8500883647
  H        12.4243723632       -6.5445544757       18.8762142669
  H        13.5358598159       -6.0571553120       17.8603497625
  O        14.8442929170       -8.2252646425        7.1385596247
  H        14.2757435002       -8.7052154238        7.8404894000
  H        14.2627736348       -7.5205315324        6.7318538510
  O         4.7534940751       -4.6575468595        1.2869778499
  H         5.6045081859       -5.1801171864        1.2755134410
  H         4.2237894320       -5.1514630931        0.6055873123
  O        13.4506536326       -1.7010180655       17.9968401117
  H        13.4751141038       -0.9991063664       18.6313908747
  H        12.5179621676       -1.5346888850       17.7275071273
  O        10.9006051655       -4.5213302327       16.4511329953
  H        11.4540786720       -5.0748745119       17.0690770444
  H        11.0827883195       -3.5538980939       16.6376288782
  O         8.5568922554        4.2213392147        5.2673499130
  H         8.8372454694        4.0555639823        4.3611078133
  H         7.6714742620        4.6606639555        5.3162430773
  O        12.9845739236       -2.5159292403       13.3825336787
  H        13.4836839558       -1.8895433396       13.9604504601
  H        13.4159031346       -2.3183155461       12.4772032861
  O        18.4824849324        1.2534669554        6.4056394714
  H        19.2396704797        0.8349965373        5.9122574762
  H        17.9977206746        0.4373822794        6.6814783323
  O        14.3695099161        0.3847754103        7.2779213975
  H        13.9701766124        0.5222689357        8.1323393420
  H        15.2818842866        0.2417217248        7.5190452480
  O        12.6934846011        0.5724867749       10.2160043428
  H        12.2067091690       -0.2472999136       10.0135338272
  H        13.5078205405        0.0519692521       10.4504621331
  O         8.8648816659        0.5584658340       17.5369868324
  H         8.9865229493        1.3309503098       16.9352051653
  H         9.3349610671        0.7352448651       18.3753691492
  O         7.0488322711       -1.0069925371        8.7358922635
  H         7.7525528979       -1.2950224859        8.1831355086
  H         6.7156220100       -1.7346310705        9.3179615027
  O        20.5014499981       -4.3185185526        5.2318467037
  H        21.4492738866       -4.6461045722        5.1640496086
  H        20.0240610484       -4.8356145104        5.9333538413
  O         8.0143469333       -5.0483773669        9.7791631867
  H         8.1535227561       -5.8465610245       10.3422119346
  H         8.9201294303       -4.9599526210        9.3643842819
  O         3.6021162205       -2.5937966725        9.4397563315
  H         3.7875386432       -1.9546724371        8.7094659660
  H         4.5425890375       -2.9337423955        9.6159933265
  O         9.8940239699        3.2173689943        8.8221078235
  H         8.8790227695        3.0036319835        8.6718204093
  H        10.0454035245        2.9044811875        9.7385990606
  O        13.1437143744        2.3735866859        5.5352338239
  H        12.4286772692        1.8738305011        5.9897350117
  H        13.8596410496        1.8035039655        5.9226127964
  O        10.7669071210       -6.6087565431       12.2236211896
  H        10.2821413389       -6.0884056731       12.8927158379
  H        10.8835064637       -7.4723212891       12.5823361295
  O         9.5363334252       -5.0469619710       14.1928774743
  H         9.9574864449       -5.0363480577       15.1219204774
  H         8.5590745522       -5.0087029937       14.4154406214
  O         1.7235942302       -6.3229204970       16.0003721214
  H         1.3552529586       -5.9548592434       15.2387923679
  H         2.4935961674       -5.7882674200       16.0962830994
  O        16.5017000793        2.5008741324       12.4733640243
  H        15.6117354405        2.9010607082       12.1772101400
  H        16.5760224145        2.9444356474       13.3997626955
  O        10.1401785801       -2.4879810077       13.2523058855
  H        10.0345200159       -3.3571753923       13.7029300906
  H        11.0474523515       -2.2067986808       13.3171305756
  O        17.9683236359       -7.1034760054        4.9602351357
  H        17.4760088775       -7.9180791029        5.0609362475
  H        17.4044410444       -6.3398335110        5.0152569781
  O         3.3606015112       -8.8477120515        2.6265200045
  H         3.1603302112       -7.9048911346        2.7414535903
  H         3.7266897421       -9.2082568381        3.5096859056
  O         7.6420978822       -8.8659831672        1.1565156058
  H         7.2437342217       -9.6943958030        0.8292413089
  H         7.5626922634       -8.3314856481        0.3283764344
  N         7.7348840285       -0.9590248646       14.0882056027
  H         7.5066404827       -0.1115594910       13.4889370796
  H         8.7254520015       -1.2154132737       13.8012012487
  H         7.0133545526       -1.6245271086       13.7521391641
  H         7.6775025729       -0.8637798745       15.0958749432
