     194
 CELL 12.4294 12.4294 12.4294 90.0 90.0 90.0 i =    27620, time =    13810.000, E =     -1097.1110832020
  O       -10.2207815534        3.9762259003        6.5456448669
  H        -9.9357411208        3.0714768276        6.3785622122
  H        -9.7269317083        4.3903147478        5.8588003020
  O         0.4936847304       -8.2971714768        3.6299830290
  H         0.5379935126       -7.3188888689        3.7943287319
  H         0.6344972116       -8.7043155447        4.5014972996
  O        -4.8714175675       -6.9572515515        6.1756327778
  H        -5.1440146473       -6.0831310192        6.5636786984
  H        -4.0135419719       -6.7586801458        5.7464824840
  O       -11.9088846610        1.3007462219        6.5761910742
  H       -12.6908081536        0.8504697603        6.9682739742
  H       -11.1460439380        0.8249447554        6.9868393024
  O       -18.5200039684       -4.6994279127        6.8610811359
  H       -18.9159933944       -4.3882435034        7.7140064252
  H       -18.1325196675       -3.9372341911        6.3404738827
  O        -3.9514678833       -1.6945191554       14.0254544521
  H        -3.3409613447       -0.9383990554       14.0679960554
  H        -3.6553956056       -2.1073608185       13.1656350248
  O        -4.9195040813        4.8622006959       -3.1976741870
  H        -4.2852256299        4.2965701915       -2.7128088149
  H        -4.5753742387        4.9108643931       -4.1126793063
  O        -2.0074424999        5.5219423175        5.3473852298
  H        -1.4424254934        5.0747207208        6.0623698238
  H        -1.6456345691        6.4378951220        5.3178863300
  O       -11.9804262561       -3.8392905721       -1.8131767550
  H       -12.1597662472       -4.8550443521       -1.8520950928
  H       -11.7198496812       -3.5610263111       -0.9097252435
  O        -3.8306448354        2.5001759395        0.8243546611
  H        -4.5434167615        1.8754529021        0.8705900442
  H        -2.9909995925        1.9822415481        1.0691469011
  O        -3.2672417286       -3.7386986654       -1.4791592389
  H        -2.6020698349       -3.1446921429       -1.8483494134
  H        -2.8714879278       -4.2556712928       -0.6789050124
  O        -8.4303196301        4.3696025631        4.4850176268
  H        -8.7480705973        3.9154469609        3.7120184691
  H        -7.5225207894        4.0212369397        4.4605821571
  O       -13.0439666540        4.2790911031        7.3042109762
  H       -13.4635126620        3.7793269997        8.0122190237
  H       -12.2640381396        3.6848246065        7.1253538601
  O        -6.1019745978       -3.0931636497        2.9501232559
  H        -5.2661806344       -2.6357744575        2.5783800829
  H        -6.0390856810       -2.8533141293        3.9295050189
  O        -5.7216077592        0.5127076303        2.1921956420
  H        -5.6310232497       -0.4905830559        1.9248322779
  H        -4.9734672276        0.4502552738        2.9016254703
  O        -0.1129792434        0.9783418641        3.6878250501
  H         0.5397184687        0.8820276268        2.9364690536
  H         0.4600910526        0.9484507163        4.5268034483
  O        -1.9948601774        0.4492670508        1.3424023036
  H        -1.6435848079        0.8415315723        2.1727309513
  H        -1.2781837282        0.5377020981        0.6414204138
  O        -2.3564644836        6.8301467829        9.1621470283
  H        -2.7730170159        6.7724821946        8.2753454930
  H        -2.9279206434        7.3084800172        9.8505334143
  O        -4.9832745661        7.0014311067        1.6854595412
  H        -4.6238534969        6.2587742492        2.2976196489
  H        -5.2842295181        7.7128736048        2.3450609440
  O        -9.9161515116       -7.6425767674        9.4399215716
  H        -9.2118565525       -7.0145714930        9.6132488972
  H        -9.6233006804       -8.0028286864        8.5412544873
  O        -1.7652232611        2.1379249180       -3.4968125922
  H        -1.1490597926        1.4755642826       -3.1468886778
  H        -2.1004686932        2.5463507240       -2.6636909460
  O        -8.2828936476        6.9826378343        5.2147486449
  H        -7.4581581888        7.0495877779        5.8190796087
  H        -8.2702606571        6.1095603609        4.7718522885
  O         0.0137255032        0.0509100261        9.6585289372
  H        -0.3889004180       -0.8734876294        9.5070833717
  H         0.9511490812        0.0287651912        9.3463899959
  O       -10.0601707573       -2.5509538931       -3.1853278058
  H        -9.8931647041       -1.9068495211       -2.4306448564
  H       -10.6764896690       -3.2597718369       -2.8313070327
  O        -8.6236602193        3.6657966466        1.1612244833
  H        -8.3071758548        3.0105049138        1.8088200152
  H        -8.1141633627        4.5181090381        1.1293386233
  O        -1.4957073910       -1.2587385614        4.1995498000
  H        -1.0271290939       -1.9603250204        3.6441160446
  H        -0.9387787089       -0.4231769714        4.1007530782
  O         0.9463136336       -5.6648332352        4.0456354172
  H         1.0202429901       -5.7037810637        5.0112121808
  H         1.8366453409       -5.5462025861        3.5624068645
  O        -4.0087779894        0.6769220393        7.6953846224
  H        -4.6207416272        0.2952124086        8.3591423202
  H        -3.3731989390        1.3101285820        8.0647953572
  O       -10.8527379859       -2.8009265230        1.5767188314
  H       -11.8115806814       -2.9356098040        1.8861182620
  H       -10.3470764696       -3.5917132876        1.9606126726
  O        -7.4066157416       -3.8540133957        9.0537140131
  H        -6.7497526694       -3.4726626951        9.6636373933
  H        -8.3077624041       -3.3127434759        9.1958905450
  O       -10.8937309602       -1.5539513766        4.7527261961
  H       -10.5970602249       -1.7376768403        3.8486593235
  H       -10.2752824011       -2.1884350079        5.2763534336
  O        -6.9945236635        2.5892067999        9.0982198587
  H        -6.3177539667        3.2909038993        9.2657384252
  H        -7.7151602306        2.7383519785        9.8223821289
  O        -7.6753390723       -2.8759107472        0.6188739959
  H        -8.0455311943       -3.7584334311        0.7040806221
  H        -7.3107765179       -2.5809644501        1.4721852416
  O        -8.2053198864        1.1505163225        2.6379102679
  H        -9.0487043081        0.6584463226        2.3639892194
  H        -7.3736519167        0.7150455959        2.3230490924
  O         3.2214863794       -1.3396407662       -0.9865366163
  H         2.9236242170       -0.5796488834       -0.4710060461
  H         3.6876993652       -1.9462727894       -0.3256624222
  O         3.2698776357        2.3400910220       -1.5285971222
  H         3.5952344896        2.5995852704       -0.6176278478
  H         2.9232191068        3.1223664983       -2.0469655225
  O        -1.5369262545       -2.4292790618        9.3825957673
  H        -1.6687896741       -2.2925898922        8.3540862876
  H        -0.6069372437       -2.7080081573        9.5784746258
  O        -0.9019348050       -3.8208853331        2.8074729535
  H        -1.6151218453       -4.1890585902        2.1540566534
  H        -0.2996830885       -4.5537103478        3.0542037630
  O        -5.9096678320       -2.6127880616       10.8321592237
  H        -4.9996808347       -2.9400315984       11.1190844409
  H        -6.3917196952       -2.7951267411       11.7137396100
  O        -0.8957866933       -7.2146877034        0.1235049609
  H        -0.0985725017       -7.7179340395        0.4433886200
  H        -0.5008289236       -6.9273528014       -0.6975657826
  O       -12.2137122742       -2.4063001277       -5.2150727130
  H       -11.5749646892       -2.1766064806       -4.5227222274
  H       -12.0492134499       -1.7991336452       -6.0141358197
  O        -2.9767353739        3.6271291151       10.8011165480
  H        -2.4153830408        4.2408732521       11.2989217552
  H        -3.5699878525        3.2506214360       11.5281851511
  O        -6.0249843318       -0.3147402511        9.2246905569
  H        -5.8626880079       -0.9553301619        9.9650545689
  H        -6.1700808329        0.5642003942        9.6936129204
  O        -7.6593536722        6.2690541333        0.6631979161
  H        -7.7013960106        6.1254382842       -0.3523414480
  H        -6.7401835107        6.5983485518        1.0775416390
  O        -2.0563962248        2.9874213304        3.9183969300
  H        -1.8149812601        3.8223072431        4.3810972420
  H        -1.1879874750        2.7882896572        3.4516372768
  O         1.0504306281        3.3309092506        1.1400808270
  H         1.9247730335        3.7272986390        0.9915857563
  H         0.8274035784        3.5609803069        2.0870258527
  O        -0.0065980982        0.9857037738       -0.3185936905
  H         0.3152564767        1.8948215345       -0.1769891885
  H         0.1417729916        0.5866437195       -1.2680364350
  O        -4.1661453187        4.6041990787        2.6782696553
  H        -3.9438946169        3.9307228840        1.9188036765
  H        -3.4164954573        4.3409459902        3.2596939416
  O        -7.6989687119        6.2606073431       10.3865165571
  H        -7.4852464210        7.1226669205        9.9752840660
  H        -7.0434403581        5.6491365848       10.0940028819
  O        -9.3965992106        1.2611141010        5.2272495059
  H        -8.8194371580        1.2442083155        4.4027831787
  H        -9.8396205778        0.4012688624        5.1919939037
  O         2.5328737194        0.2930691121       -3.7391520146
  H         3.1557208842       -0.4088171018       -3.5974994998
  H         2.7811379413        0.9985633992       -3.0217680250
  O        -9.2483254830       -4.9662240268        2.3815989410
  H        -8.5745784217       -4.9134804849        3.1124928879
  H        -8.7344808045       -5.1896383325        1.5897991010
  O       -10.7489723207       -0.0280919538        1.5808161868
  H       -10.9177659234       -1.0223848216        1.6043225803
  H       -11.4065374220        0.3897879738        0.9579918955
  O        -5.8682819618        3.4987630765        4.4956031504
  H        -5.5040109367        4.1640570797        5.1973466564
  H        -5.3343510897        3.7916745240        3.6824535875
  O        -2.3865105418        7.3585587768        0.7541014897
  H        -1.7475153541        6.6167299713        0.8367254130
  H        -3.2631874850        7.1665059782        1.1262417305
  O        -5.2961529983       -2.3668239879        5.3470068129
  H        -5.7598576854       -1.9605932131        6.0951748588
  H        -4.3001560484       -2.3229061798        5.5919450134
  O        -7.3529658239       -1.1778985848        6.9123488868
  H        -6.9755929734       -1.0209114855        7.8102274678
  H        -7.8702312616       -1.9924116568        6.8640112822
  O       -15.3978486842       -1.9189357450        6.5713430767
  H       -14.7368787177       -1.7868628303        5.8681857846
  H       -15.6526648520       -1.0116125100        6.9673614531
  O         0.6959821318        6.8025573834        6.9131994245
  H         0.0582586855        6.0746087776        7.0768791735
  H         0.0999054926        7.6069133340        6.8425847631
  O        -3.7881487002        0.2916270784        3.9395357507
  H        -2.9459284885       -0.2519248800        3.9384384364
  H        -3.5212714836        1.2339413341        4.0446668762
  O         0.0483897195       -6.3381698081       -2.3439049979
  H         0.7405182534       -6.8267836384       -2.8254703686
  H        -0.7847824953       -6.1014123078       -2.8837264043
  O       -14.0855100682       -4.1948361612       -6.6807977222
  H       -13.9006047436       -3.6839896692       -7.5074855547
  H       -14.2913834837       -3.5298038666       -5.9585119232
  O        -9.6233880178       -3.2442773602       -6.0984858128
  H       -10.3739142593       -3.4308343472       -5.4582695533
  H        -9.3831607836       -4.0446544285       -6.5942758159
  N        -6.5839840932        1.3446915417        6.4415328046
  H        -6.7021119407        2.0380536289        5.7001186204
  H        -5.5660687033        1.1254603499        6.5946602041
  H        -7.1209968048        0.4865398088        6.3068842440
  H        -6.8364628875        1.8395909618        7.3347398808
