     194
 CELL 12.4294 12.4294 12.4294 90.0 90.0 90.0 i =    76820, time =    38410.000, E =     -1097.1556954204
  O        14.1420769009        0.0835462518       12.0621306172
  H        14.4997350260       -0.8336274089       11.9589125603
  H        14.8533370754        0.7468940384       12.1139661601
  O        19.1193496607      -10.2761673944        9.7431063467
  H        18.5224183319      -10.6776598466       10.3847999210
  H        19.3744491213      -11.0820751695        9.2638040849
  O        17.2394857850      -11.1264753134       11.6000250658
  H        17.5967228809      -10.6962896331       12.4345612359
  H        17.5369361709      -12.1029426711       11.7249910256
  O        11.2830205331       -2.6260378033       14.1319634721
  H        11.0972002528       -3.4219155335       14.6757071457
  H        10.4622694089       -2.0452731455       14.1294913362
  O         5.5280650856       -9.3836021418       13.7651142562
  H         5.6424612109       -9.9668159601       14.5654380430
  H         6.3249496722       -8.8738550229       13.7629481318
  O        22.3283910220       -5.5881565008       23.3992729326
  H        22.1567193005       -6.1602870622       22.6110667032
  H        22.1869997487       -4.6682197025       23.0315512378
  O        15.3694357799        0.3794280516        2.9017220273
  H        15.4741986407        1.3675719107        2.9706447405
  H        16.1515408787       -0.1005819430        2.6052697662
  O        21.0216450604        3.1974389015       11.3478765678
  H        20.3693144135        2.9918313051       10.6410668238
  H        20.7171809849        4.0672670847       11.7239825526
  O        12.7621321096       -6.9214145642        3.9660206683
  H        12.6701885517       -7.6189246833        3.2974327075
  H        12.3463170157       -7.2698889077        4.8086266030
  O        16.3864257207       -2.7527798785        9.2549651482
  H        16.1576555401       -3.5256634970        9.8080391527
  H        17.0624826566       -3.0180413153        8.5316906702
  O        16.8975685810       -7.4453110407        4.1749272644
  H        17.6861487619       -6.9469462656        3.9674797966
  H        17.1648229313       -8.0971336261        4.8566818795
  O        12.0054465866        0.5572922945       10.1939380955
  H        11.6563963619       -0.3474218416        9.9974348610
  H        12.8905603060        0.4801413064       10.7054540633
  O         9.1492509632       -1.0447895106       13.7157457245
  H         8.4182176546       -1.2149837955       14.3469619490
  H         9.1909977756        0.0003427870       13.5569019449
  O        19.2111321661       -7.1220865283       11.5464742172
  H        19.6628973520       -6.3295469259       11.1402193705
  H        18.5765087492       -6.7929330500       12.2274689603
  O        14.7270577787       -2.5895609083       11.9041288995
  H        13.8429293830       -2.9649446400       11.7003807649
  H        15.0174541059       -2.9723568720       12.7923007170
  O        20.0742254247       -2.4484008669       11.8875004230
  H        20.5183206557       -2.8678852456       11.1241750069
  H        20.7602463443       -1.8972437885       12.4159760161
  O        19.4571982772       -4.7889595043       13.3960465850
  H        19.1194095593       -4.8008717503       14.3218295740
  H        19.4509321231       -3.8900241233       13.0198718288
  O        17.9962146419        1.2848631582       15.7877886501
  H        18.1264654210        1.7986899350       16.5992587845
  H        18.5435763455        0.5073382454       15.9415719595
  O        16.9892624231        4.6950896229        9.4884513878
  H        16.2167501863        4.0584208150        9.5855428776
  H        17.5066818224        4.5944088139       10.3193549894
  O        12.1806584123      -11.3558557271       13.9149316656
  H        12.7120536454      -11.9114999832       13.2531862605
  H        11.3059987262      -11.1033023998       13.5046948263
  O        19.6852986186       -1.5228219647        4.0864682290
  H        19.1378508256       -1.4179681750        4.8792056800
  H        20.4933358281       -0.9643836267        4.3336093755
  O        13.1647145360        3.6107387531       11.3394161799
  H        13.9661273808        3.2915124564       10.8620620648
  H        12.4056017538        3.6053955573       10.7135216083
  O        22.3351855811       -0.7302672754       19.5669611984
  H        22.8757098555       -0.4149058406       20.3427384416
  H        22.5896363736       -1.6976347966       19.3128066363
  O        11.2919600375       -2.9258048160        6.2082609980
  H        12.2306521871       -2.6300702501        6.0624449767
  H        11.4182524720       -3.8043000563        6.6398920562
  O        13.7921090571       -1.8499763402        5.4778993321
  H        14.1071098312       -2.0344832481        6.4353621990
  H        13.5596212611       -0.8875030089        5.4237825062
  O        21.8464038313       -6.5299023286       13.6402646009
  H        22.0951104481       -6.2662645915       12.7213598009
  H        20.9506493028       -6.1706339072       13.6590299759
  O        23.3217490473       -9.3858041821        9.8824794949
  H        22.4856822347       -9.5160877967       10.4332668088
  H        23.6547172369      -10.3371263131        9.7928938993
  O        19.6839733902       -4.4786926317       20.0911378253
  H        20.3183024325       -4.7149186015       19.3201444257
  H        18.9649319698       -5.1053612829       20.0943047471
  O        11.7498194789       -5.1324409916        7.7794068535
  H        10.8192071526       -5.4342465429        7.8094344929
  H        12.1275308627       -5.3565449482        8.6607244528
  O        15.1214920117       -9.3715266240       15.7780291522
  H        15.9444339507       -8.7960331775       15.8382306812
  H        14.5845375388       -8.9690347560       15.0896432466
  O        12.0756056496       -3.6533976083       11.6832083661
  H        11.7889876148       -4.5929189303       11.5272940227
  H        11.8478983439       -3.2771875761       12.5518753697
  O        16.1641785004        0.4232877348       18.2219991324
  H        15.9067567890        0.2734907794       17.2544165613
  H        15.3035366479        0.3792537461       18.7500156067
  O        15.7850598003       -5.2730186305       10.4883433078
  H        16.1595306682       -5.9865012382       10.0225182772
  H        15.8917740202       -5.5428091620       11.4259354007
  O        13.9199856715       -2.7710675980        7.9504537750
  H        14.3076342352       -3.7066065480        7.5329226342
  H        14.7108352368       -2.4276853345        8.4205685256
  O        26.8597482600        0.7965988675        8.0767661246
  H        26.2967531802        1.4461520931        7.6511385095
  H        26.2779436703        0.1999458675        8.5698568452
  O        21.3233311406        2.9914163042        4.8329899896
  H        20.8363214911        3.1674939694        5.6227108038
  H        21.5761983228        1.9906635970        4.8077368302
  O        21.1605524592       -4.5977157764       17.1999325631
  H        22.2201597408       -4.6627395311       16.9782990217
  H        21.0368749541       -3.6456224380       17.0236052962
  O        22.1006535435       -7.6217704757        7.9905613488
  H        21.1282026453       -7.7018392895        8.0307323163
  H        22.5036044254       -8.2961816873        8.6750636464
  O        17.6984205747       -6.2703802556       19.6988097978
  H        17.1819285467       -6.7529466233       20.4349249727
  H        17.0086116984       -5.9254757325       19.1590784740
  O        19.2603888600       -8.5587316319        7.6050989849
  H        18.7893907022       -8.8163557687        8.4262177984
  H        18.7761993941       -7.7768778658        7.2378670979
  O        10.9809397962       -5.0110250131        3.2884446543
  H        11.7795881692       -5.5464519594        3.5240998056
  H        10.4642374810       -5.5983727647        2.6969028636
  O        18.0514879858       -1.0702697087       19.0521869387
  H        18.5453095944       -0.7812565272       19.8258722831
  H        17.3594163573       -0.3411774263       18.9146707975
  O        16.9307523105       -3.3072751346       18.1981835948
  H        16.0819186791       -3.1461543651       17.7853903214
  H        17.3338962749       -2.4866193823       18.5022270524
  O        13.4906261366        2.1728634401        5.7060540053
  H        14.1973379299        2.6774608270        5.2087381150
  H        12.6186086522        2.6696538548        5.6933010029
  O        17.2043043443       -1.9000787365       14.4447312426
  H        18.0949413827       -1.9223278234       14.8260680336
  H        17.3335524014       -1.5802317681       13.4711354863
  O        21.8817954651        0.3341172674        4.8135295971
  H        22.7410873979        0.4296898319        4.3827678080
  H        22.1340257493       -0.0086801090        5.7247020583
  O        19.9239939796       -0.3403913086        8.6765865957
  H        19.9757738970       -0.9363187858        9.4312258687
  H        20.7177898384       -0.4011794895        8.1327092244
  O        17.6858164033       -1.4813770949       11.8400989515
  H        17.0609590273       -2.0271207972       11.2196053270
  H        18.6359525445       -1.7173885265       11.6450721976
  O        12.2332075634        0.3770189558       16.4524466943
  H        12.1963705052        0.5946060977       15.4836725807
  H        12.7052301708        1.1194849883       16.8980984271
  O        11.4640604223       -2.2011795074        9.3771146875
  H        12.2314182160       -2.4078030986        8.7466491908
  H        11.7237422235       -2.6380220017       10.2527542885
  O        27.0124747793       -5.0554134567        6.9188210122
  H        27.1867726750       -5.1444358770        5.9798669545
  H        26.1213811074       -5.4299565064        7.0950251440
  O        12.7972100347       -5.8985922535       10.2628195541
  H        12.8361075366       -6.8869582223       10.4468841441
  H        13.7624039910       -5.6774830581       10.1436694348
  O         8.9284410539       -3.2510431072        9.5673760310
  H         8.3125880965       -3.6710319564        8.8692125837
  H         9.7728039827       -2.9882711003        9.1928789946
  O        15.3376762997        2.5431971676        9.9870073610
  H        15.3369585146        1.9402547027        9.1198332649
  H        16.1075590944        2.1442244224       10.5353561520
  O        17.4560172122        2.6268720891        5.5501504194
  H        16.8012389800        1.9116864766        5.7488909122
  H        18.1209699581        2.7273987103        6.3513487565
  O        16.6780979959       -6.8812930593       13.1666768745
  H        16.4597216209       -6.0829374905       13.7724152820
  H        16.9023076108       -7.6985772619       13.6666431931
  O        14.9789500691       -5.5904967734       16.7198716859
  H        15.7357493718       -6.2584604885       16.6959378233
  H        14.1764769468       -6.0985948756       16.6113005993
  O         6.3130143008       -5.3852414516       16.2446653568
  H         5.8710718958       -4.7791245350       16.8874736261
  H         7.2686350103       -5.2365123738       16.3604841829
  O        21.9461810522        1.5736282847       13.3711897138
  H        21.7269868937        1.8869787280       12.4944856139
  H        21.5505412844        2.2893246641       14.0044601348
  O        15.5674348186       -4.2454871896       14.4708267752
  H        15.4326972845       -4.7721641748       15.2781478919
  H        16.3455830916       -3.6098367386       14.4759525045
  O        23.7184711831       -8.6158484009        5.8357216317
  H        22.8886104375       -8.6825852334        5.2869483900
  H        23.4582335919       -8.1462394537        6.6369764219
  O         8.2553828298       -8.8241201161        2.2199385212
  H         8.8186709833       -8.0452379756        1.9022311221
  H         8.4482147456       -8.8889948901        3.1749172666
  O        12.8828255375       -8.6509023044        1.8003360101
  H        12.7458960198       -9.6216757819        1.6018298384
  H        13.1005112738       -8.1929661995        0.9556287141
  N        13.8210438860       -1.9511204567       15.1367257409
  H        14.0586236809       -0.9333029890       15.2040263495
  H        14.6159410427       -2.4688121817       14.7868180152
  H        12.9607691904       -2.1667914641       14.5370398886
  H        13.6438706004       -2.3303967267       16.0586894500
