     194
 CELL 12.4294 12.4294 12.4294 90.0 90.0 90.0 i =    91620, time =    45810.000, E =     -1097.1252041373
  O        18.5279771011       -0.3956908917       13.9952401989
  H        17.9781866851       -1.2029468815       14.0341130007
  H        19.1349370527       -0.4745401948       14.7824180632
  O        23.8867381050      -10.3766368346        9.4012457593
  H        23.6516961571       -9.7598886215       10.0939944257
  H        24.1574019906      -11.2012543540        9.8718227553
  O        21.0909957681      -13.4467803563       15.5674234406
  H        21.4829713297      -12.5803453438       16.0441901810
  H        21.8820741982      -13.8663984841       15.1824263566
  O        17.2213228888       -3.1549163353       14.0124959607
  H        17.1457796499       -3.6937870808       14.8623205054
  H        16.3527094578       -2.6936725765       13.8942070121
  O        11.2279344428       -8.9361095208       15.6851116422
  H        11.9878859680       -9.0793914642       16.3606972663
  H        11.4451437618       -9.5681771757       14.9454004877
  O        29.0909699634       -7.5552589081       24.6432107270
  H        29.0434011866       -6.5246237846       24.5556477810
  H        28.2570904852       -7.8487423008       24.2239420853
  O        21.3533099493        1.7969962823        4.1389257315
  H        20.5102150363        2.0964457798        3.6537430631
  H        22.1244300962        2.2460431398        3.7137613079
  O        24.1249053741        1.2184240620       13.8131344977
  H        24.5543672220        0.5975371831       14.3906915396
  H        23.5993602806        0.7355532692       13.1508966352
  O        17.6580102217       -7.3593516824        3.5909459747
  H        16.8367850348       -7.7509229996        3.2128525715
  H        17.7276868043       -7.7716423606        4.4973466745
  O        22.5338480912       -4.1428429248       11.5240640143
  H        22.8959764881       -5.0589979696       11.6832262709
  H        23.2055380939       -3.4711106506       11.7664542687
  O        22.8743610242       -8.0637506706        6.6616651880
  H        23.6217692175       -7.8928426352        6.0321967045
  H        22.7871786448       -9.0161654467        6.6578832349
  O        17.6587469298       -0.9866281610        9.5552940912
  H        17.7607080014       -0.2556045324       10.3284456832
  H        18.0516768708       -1.7916784757       10.0862299023
  O        13.9600581885       -0.2702967958       15.3393058447
  H        13.9361292296       -0.7263613203       16.2232145620
  H        14.7144855197        0.3599055958       15.5085896343
  O        24.5743354360       -8.8622993930       12.4372598288
  H        25.5016817998       -8.8209183906       12.0005774760
  H        24.5980853430       -9.7402990193       12.8782429444
  O        20.4481613611       -3.6723485525       13.1814631698
  H        21.0789986229       -3.5947512626       12.4146287916
  H        19.6081266413       -3.3051895463       12.8780504759
  O        27.0753889784       -2.2738036573       13.6700851023
  H        26.7521943391       -2.0383987275       12.7806799470
  H        26.7080569032       -1.4814350693       14.1940979483
  O        25.6078505794       -4.1577535060       15.2324294949
  H        26.2502533142       -3.7252743743       14.5753611018
  H        26.0682187548       -4.0768349328       16.1505831043
  O        25.4418057650        2.5561128610       17.3672762169
  H        24.8620467329        2.1453514087       18.0649519356
  H        26.3228974429        2.5947270981       17.8395023394
  O        23.1780236640        6.2562769731        8.4890889282
  H        22.9400283187        5.4426036321        7.9750522113
  H        22.9883841791        5.9765733572        9.3949130159
  O        16.5245577207      -10.9798240455       14.9663669720
  H        17.4427108472      -11.3094317459       14.8729461720
  H        16.5313491716       -9.9882905297       15.0151799997
  O        26.7860168985       -1.2776469546        5.4787983080
  H        25.9640320262       -1.5295478894        5.9292644154
  H        27.3707341774       -0.9394479157        6.1208818967
  O        21.0023096809        3.4247230866       12.5360045534
  H        21.7440291503        4.0571591881       12.2797732778
  H        21.2672169926        2.4651992862       12.5020905363
  O        27.5236712439       -1.9137435923       22.9098829571
  H        28.2765030478       -1.2993445824       22.5477909919
  H        27.4965628889       -2.5936359621       22.1721942578
  O        18.8894391687       -2.6340344234        4.6780474440
  H        18.7213808691       -1.7203646485        4.7506898387
  H        18.0598978560       -3.1014439431        4.4722632790
  O        20.5664199243       -3.3933176063        6.9011548207
  H        20.4031273399       -3.5335553276        7.8301646256
  H        19.7042543943       -3.0778564235        6.4429197097
  O        25.8648712704       -6.8319660416       15.1872120089
  H        25.7544350491       -5.8519541440       15.0937310761
  H        25.1227236197       -7.1866928332       14.6719226049
  O        30.6180995496      -11.6126135938       11.5867909324
  H        30.7730922509      -10.6483619150       11.4572986399
  H        30.7097859196      -11.8971924275       12.5161272981
  O        27.2864698556       -4.0795038068       21.0978660296
  H        28.1376369999       -4.5213045462       21.2061199146
  H        26.7449405350       -4.7907196055       20.7200297984
  O        17.4536219108       -5.1974365300        9.1735430754
  H        17.9544447875       -5.5047471815        9.9235724197
  H        17.7887996676       -5.6574534788        8.3712843712
  O        19.1660233083       -9.4841673678       15.0555328389
  H        19.7173914483       -9.2949355160       14.2665059404
  H        18.6021280496       -8.6436096214       15.1828319563
  O        16.5552061468       -4.8289272976       11.9742882015
  H        15.5742652884       -4.5988382434       11.8269719714
  H        16.7542267732       -4.3451050739       12.7944335156
  O        23.2455649243       -2.7222499145       21.0532294075
  H        23.0829060663       -3.6647682363       21.3178243020
  H        22.4272709940       -2.2834647902       21.3391931367
  O        23.7125254405       -6.5139370544       11.5274997488
  H        24.5720553920       -6.0439076933       11.4450365284
  H        23.9016478635       -7.3232025450       12.0499597721
  O        20.5727870567       -4.2753844605        9.6092956511
  H        20.4762825118       -5.1452600985        9.1069221587
  H        21.2367411343       -4.3381925415       10.3848605143
  O        33.3983814070        0.0767153190        9.7709351893
  H        33.6478070939        0.7931885162        9.1262235365
  H        32.5110855718       -0.2972680030        9.6014615270
  O        27.7731437947        2.2258587732        6.6353698306
  H        27.2479116661        2.6524999809        7.3714808627
  H        28.0705862318        1.3103003824        6.8790702019
  O        27.1328157528       -4.0197462510       17.7014539319
  H        26.9578547472       -4.3120005533       18.5660354965
  H        27.0664432659       -3.0938777485       17.6914044988
  O        26.9681928385       -8.8934532877       11.2958059108
  H        26.8522631699       -8.8385846537       10.3526387641
  H        27.4899493424       -9.7883027133       11.4805065983
  O        25.6360937071       -6.0849291785       20.0768713377
  H        24.6757915265       -5.9156222854       20.4800024578
  H        25.3745783877       -6.2630536701       19.1402234133
  O        26.3355734194       -8.9073310903        8.6583142174
  H        25.3999536004       -9.2188779368        8.8351436636
  H        26.2873606019       -7.9235833768        8.3741915722
  O        17.0811084846       -4.6171772448        3.9024281865
  H        17.4165794658       -5.5325809257        3.9958095212
  H        16.3247354480       -4.5547433545        4.5223943031
  O        24.4145130552       -2.1166546739       24.6566227744
  H        24.2102033166       -2.0634968947       25.6358287690
  H        24.6018252390       -1.2674529399       24.2245135378
  O        24.4327891295       -2.2994144642       18.6511261965
  H        24.0618417183       -2.5386375216       19.5545698162
  H        23.6959411605       -1.6443909174       18.3541208585
  O        20.0307378604        1.6213859520        6.7764293708
  H        20.6845493668        1.6619339088        6.0704756501
  H        19.3125034210        2.2418385993        6.4637957141
  O        21.8377379966       -1.0729470322       18.3582719878
  H        21.4076768258       -1.4653276965       17.5691388545
  H        21.5617217626       -1.6450022260       19.0827374411
  O        28.7949032892       -0.1523044061        7.1535998692
  H        29.6812719691       -0.0832258764        6.7504285411
  H        29.0104158083       -0.4192426518        8.0650520001
  O        25.3164680757        0.0086812360       10.7557705853
  H        26.0633161865        0.4342555496       11.2560572545
  H        25.7886648949       -0.6443867681       10.2451255251
  O        22.8631515940       -3.0580594205       14.5677865520
  H        22.0530924197       -3.3319302706       14.0717006081
  H        23.3638435421       -3.8581622459       14.9041258903
  O        18.4029761306        0.0664112184       17.4941361453
  H        17.7692072828        0.6616374069       17.1305019490
  H        19.0470390678        0.5504840933       18.0739494711
  O        18.5681306248       -2.9857034610       11.0156172088
  H        19.2129264469       -3.5272308620       10.4281625200
  H        17.7531600092       -3.5491032713       11.1242694350
  O        31.9917512858       -6.5701868399        8.0267017034
  H        32.3310900504       -6.5781858489        7.0813646910
  H        32.3243619216       -7.4506244140        8.3633302739
  O        20.4615537908       -8.8803756762        8.9117477001
  H        20.2073783517       -9.6942945263        8.3454168345
  H        19.8069655951       -8.7919854607        9.6486560240
  O        13.6709468314       -4.6651675223       11.1338412739
  H        13.9985654368       -4.5198025822       10.2072545507
  H        13.2946529856       -3.7900002849       11.3820404077
  O        21.6967925648        0.6973824041       12.7163037805
  H        21.3928261005        0.3820791976       11.8727709792
  H        21.3002265508        0.0910059264       13.3526331669
  O        23.2304704196        1.4707957553        6.8243898405
  H        22.7265799187        0.6979956363        6.5287083652
  H        23.2442166649        1.5778949037        7.8123718819
  O        22.0896622593       -6.4788298516       14.6157022621
  H        22.0813287275       -7.1768691277       13.8997779995
  H        22.4082601929       -6.9565963336       15.3883549607
  O        20.5665273300       -7.0193483878       17.5318840706
  H        21.3965066813       -7.5162543434       17.7307873758
  H        20.1060070892       -7.6671562147       16.8878678300
  O        12.2556752186       -6.7174135985       17.6994760977
  H        11.5920035359       -6.0650872855       17.4916036112
  H        12.7815055440       -6.8406584867       16.8129334442
  O        27.7592900344        0.9600754820       12.2578069127
  H        27.7466537348        0.7210494230       13.1696436344
  H        28.6797308385        0.7438958943       11.9784893623
  O        22.8167997907       -4.4289476948       17.7851495795
  H        22.2031906265       -4.3721200329       18.5792760252
  H        23.5890699351       -3.8112848705       17.9130010164
  O        30.1186717806       -9.0033475548        5.9933272193
  H        29.1854507070       -9.4000929784        6.2774327429
  H        30.4341040908       -8.5749119614        6.8026869824
  O        15.7628073683       -8.3407739343        2.1576789474
  H        16.0814548254       -7.8708275121        1.2919952768
  H        14.9364217409       -7.8136057790        2.4159683539
  O        18.7452420343       -8.6372823033       -1.4141285231
  H        19.5203690501       -8.5478157169       -0.7630940283
  H        18.0139466619       -8.0589212246       -1.0495524770
  N        20.6217826521       -4.4651489910       16.0142427628
  H        20.0942135498       -3.5956614983       16.0110558536
  H        20.6387738902       -4.8672114208       15.0800930816
  H        20.1964636622       -5.0866081858       16.6280077800
  H        21.5663333903       -4.3791022601       16.4294905652
