     194
 CELL 12.4294 12.4294 12.4294 90.0 90.0 90.0 i =    53220, time =    26610.000, E =     -1097.1582800312
  O         2.8285108277        1.3289847081       11.6272577150
  H         2.5522641990        0.8928461655       10.7790775610
  H         3.7262316255        1.6960534803       11.4204522582
  O         7.9208253023       -9.2474666688        8.2682741857
  H         7.0489981196       -8.8469510017        8.0238655996
  H         7.7359056975      -10.2870949491        8.3452764658
  O         5.6502742589      -10.6942776408       10.7214968588
  H         6.0950073528       -9.9799642819       11.2622817280
  H         6.2253154540      -11.4252489861       10.6453339049
  O         0.2065455658       -2.0590280924       12.4892055776
  H         0.1145420390       -2.9955683789       12.6789318442
  H        -0.6916848048       -1.6996726675       12.6079889854
  O        -5.4709895826       -8.6647966227       12.0235444053
  H        -5.0780015623       -8.9987092784       12.8630366380
  H        -4.6789873520       -8.7349871504       11.4214464230
  O         7.2778655928       -3.5715627592       19.9691700306
  H         7.1875164603       -4.0220433382       19.1101906499
  H         8.2100482575       -3.2827645227       20.0567616185
  O         5.1708938748        1.3813990172        1.6608296286
  H         4.9221335192        2.3245480619        1.7503540703
  H         6.1024641621        1.3973317664        1.5067351396
  O         9.3961801863        3.8499566967       10.6535459015
  H         8.9206779674        3.8852450632        9.7243344621
  H         9.7458066729        4.7886828204       10.7525496515
  O         2.3226341873       -3.7862315754        2.6812224919
  H         1.4293541859       -4.1163841406        2.8648049068
  H         2.6537321193       -3.3941044892        3.5351030036
  O         5.7794165500       -1.5506896773        7.7595618646
  H         5.2123806564       -1.9786928244        8.4925209204
  H         6.4109484436       -2.2816122727        7.4937933251
  O         6.9477697377       -7.1123778297        3.4645760744
  H         7.7330518704       -6.9023395536        2.8962957077
  H         7.2021747148       -7.7729484421        4.1080823109
  O         1.7863782734        2.9837187559        7.7785772229
  H         2.0388089532        3.5406458154        6.9363119377
  H         1.1352093826        2.3612409873        7.4569043309
  O        -2.1388089867       -0.3074717104       12.4162512337
  H        -2.8657058542       -0.4130612761       13.1304129589
  H        -1.8960485941        0.6561744987       12.5304360823
  O         5.7278781472       -5.4236116991        9.0436594763
  H         6.4531768465       -4.7537387331        8.7522534899
  H         5.8071667284       -5.5431214710        9.9659689371
  O         3.9821882535       -2.3519493361        9.4023584715
  H         3.1933754678       -2.8068147036        8.9955117856
  H         4.0132994162       -2.4741707112       10.3802919148
  O         9.3551590422       -1.2525290770        9.8513094020
  H         9.8090124738       -1.7966310886        9.1557597652
  H         9.9851630939       -1.0035567301       10.5675112363
  O         7.7311444730       -4.6729256948       11.8723910319
  H         6.9182790998       -5.1389419334       11.5584979470
  H         7.6425434391       -3.6658818509       11.8223829172
  O         8.1021665034        2.5358851314       14.4173171405
  H         8.9304182132        3.0339036027       14.5431662381
  H         7.8175659154        2.5324386336       15.4038390349
  O         5.9394825008        4.7072363233        7.2764962239
  H         5.1931183427        4.1366907366        7.5849222483
  H         5.9185797437        5.5035202976        7.9421942113
  O         0.7787508912       -9.0725324133       12.0884427826
  H         1.5463012887       -9.7565821087       11.9731071564
  H         0.0378213286       -9.5701322700       12.4143094128
  O         8.0720916242       -0.2078504073        1.6625056936
  H         7.7939985479       -0.5199038128        2.5737562206
  H         8.2522816051        0.7613895219        1.7514959201
  O         2.4980281348        6.5295966183        9.9976988455
  H         3.4087022356        6.3869193716        9.7185910533
  H         1.9315350484        5.7168694272        9.6930895667
  O        10.6269581408       -2.1920004448       17.8501425928
  H         9.8335785740       -2.2790681639       17.2679711239
  H        11.4610188923       -1.9549699896       17.3093424942
  O         0.3311541103       -1.3483728269        3.5861331766
  H         1.0596705383       -0.6923128355        3.6896573373
  H         0.7577314650       -2.0809886128        3.0872128680
  O         2.0268576325        0.5584390967        4.4758045403
  H         2.7678026508        0.2073838100        5.0677518808
  H         2.3711303453        1.4431247300        4.1409815295
  O        10.2093526367       -6.0157403941       11.1890063192
  H        10.5612636144       -5.8076484120       10.2853701065
  H         9.3939080955       -5.4366984715       11.2877274878
  O        13.0960719838       -7.6684839823        9.3643589516
  H        12.8282788889       -8.1724586862       10.1412800255
  H        13.4573972769       -8.3513105290        8.6820971414
  O         9.4933467261       -3.2910908996       15.1901973895
  H         8.5643810878       -2.8125776122       15.0150412207
  H        10.0809410044       -2.8540308882       14.5457301493
  O        -0.0319186901       -4.9596060858        6.6641027383
  H         0.2603698870       -5.7305417964        6.0586424467
  H        -0.5760749017       -5.3826925151        7.3732207425
  O         4.8128488224       -8.0541891533       14.6677153633
  H         5.6353464009       -7.5716331450       15.0682956012
  H         4.2923199603       -7.3033568216       14.2565451934
  O         0.0120142723       -1.6726795389        9.4831084208
  H         0.3363498150       -2.5746560406        9.3338892626
  H        -0.1517506729       -1.7151799350       10.4080311970
  O         4.5439594977       -1.1218493727       15.5536972967
  H         4.8062552263       -0.1940820507       15.2420957087
  H         4.4782142492       -0.9752412434       16.5600892762
  O         4.1246339337       -4.9388852325        6.6283751995
  H         3.6749288033       -5.8705790451        6.4991426343
  H         4.4568936002       -4.9349689847        7.5951481025
  O         4.0711245461       -0.9784132686        5.6795141393
  H         3.3177739927       -1.6662833183        5.6517407368
  H         4.5811588318       -1.1841929512        6.5097124554
  O        17.7720575054        1.5097753654        5.9087615248
  H        17.4962830364        1.6292142779        6.8687297839
  H        17.4471545209        0.6346519108        5.6498641104
  O        11.2727838162        3.6708626620        5.1905400928
  H        10.4900507283        3.8871933350        5.7369917709
  H        11.6864002666        2.8717627009        5.7565216677
  O        12.1008427534       -4.5695912098       15.6083819973
  H        11.8256266134       -4.4443200108       14.6251516733
  H        11.4419688585       -4.0280869256       16.1034801461
  O        10.8493691089       -6.4401308964        8.5774527804
  H        10.2657503660       -6.9267059785        7.9498705311
  H        11.6225744956       -6.9719034040        8.8399298256
  O         6.3865493847       -4.6936974282       17.4534842991
  H         6.7903794252       -5.5030039938       17.0861260344
  H         5.5558020092       -4.9417169682       17.9766543413
  O         9.3027591831       -7.8455706090        6.7253043509
  H         8.9473211326       -8.5306276292        7.3509963338
  H         8.4750259757       -7.7770434173        6.2102974900
  O        -0.3084719979       -4.7138604972        0.4680743485
  H         0.4493555685       -5.3913894633        0.6534035288
  H        -0.8726178060       -5.3024602664       -0.1348912303
  O         7.8159101186       -0.9021857085       16.6965656873
  H         8.4294958506       -0.3538578447       17.2882431687
  H         7.0160225982       -1.0626574334       17.1907926420
  O         6.1534775536       -3.6234968866       14.9218003145
  H         6.0564827406       -4.0681951981       15.8148684015
  H         5.6485217038       -2.7840609615       15.0321845001
  O         2.6853982272        5.0170236400        6.0999507981
  H         2.0429045746        5.3625433653        5.3897737876
  H         3.2010123450        4.3378915780        5.6121002267
  O         6.9794302838       -1.5719756674       11.6310681359
  H         7.2310816416       -1.1446997190       12.4874377185
  H         7.7540930519       -1.4452262298       11.0789059343
  O        12.5331079164        1.0718687267        6.3203609028
  H        13.2173471841        0.7044808518        5.6988734857
  H        12.5620133631        0.4090292872        7.0047776794
  O         9.2199727495        0.9447726118        5.9197207639
  H         8.5940571319        0.7736230728        6.6828018301
  H        10.0970980238        0.7103031841        6.2732096326
  O         7.7648328527        0.3406019301        8.3007723062
  H         6.9657044228       -0.2787385028        8.2208259377
  H         8.3062174568       -0.0543739634        9.0825103126
  O         3.6197660792        3.0002557803       16.8116466624
  H         4.1249332316        3.4025929832       16.0341677855
  H         4.3878470510        2.5518694644       17.2163805420
  O         2.3453499490       -0.0091154870        9.2246877571
  H         3.1228435252       -0.5748162240        9.2835657114
  H         1.5554268373       -0.5172237409        9.4442116591
  O        14.7925810268       -3.0758728461        5.4932201335
  H        15.3128690224       -3.7403108846        6.0568819275
  H        13.8596191975       -3.1034899549        5.8008400461
  O         1.7069780379       -3.7714124902        8.6940110149
  H         2.0586814307       -4.5851393267        9.0930125596
  H         1.1134662521       -3.9377256607        7.9512005311
  O        -2.5693325259       -3.0788085899        7.8926550292
  H        -2.1804576230       -3.9166961339        8.1035801119
  H        -2.0326491940       -2.8911862389        7.0242571255
  O         4.6450434463        2.2452377955        8.2543911313
  H         3.7082934739        2.3025372811        8.5394586173
  H         5.0059258335        2.2276150600        9.2174916459
  O         7.6101059186        2.8410911133        4.6279287188
  H         6.8133554845        2.4254696769        5.0066270295
  H         8.3617387931        2.4116876886        5.1408355510
  O         5.5234248924       -6.4880573675       11.6281171613
  H         5.0969429460       -6.2562758706       12.5010096316
  H         6.0841889591       -7.3159233114       11.7961806275
  O         4.5187060302       -5.2647311056       13.6513773918
  H         5.2742468552       -4.8103451393       14.2046113925
  H         3.6368436431       -4.9904557140       14.0689983932
  O        -3.1883872758       -6.2494170216       14.3877728486
  H        -3.5374289151       -6.0535005847       13.5321354041
  H        -2.8694167083       -5.3290158217       14.6008202135
  O        10.8561596715        2.5113848748       12.5492932900
  H        10.2082101988        3.1006368777       11.9691981482
  H        10.6631879333        2.8512815376       13.4222270781
  O         4.6265309419       -2.9744825023       12.1129932993
  H         4.6318466265       -3.8516325529       12.6162525204
  H         5.5966212011       -2.6862412749       11.9951401222
  O        12.9104519262       -6.6006821945        4.7628060538
  H        12.5036745513       -7.5096623699        4.7033270962
  H        12.4051519132       -6.0012480231        4.2069621681
  O        -2.0296933213       -8.7675858538        2.6233450378
  H        -2.0269866166       -7.8152689647        2.4652765721
  H        -1.7579410762       -8.8690448156        3.5801586722
  O         1.7837138945       -6.6786108310        0.4016114640
  H         1.3706389147       -7.5624689965        0.1000893889
  H         2.2361264987       -6.2466410401       -0.3321260754
  N         2.8498952972       -1.1333660572       13.1208713680
  H         3.0238115248       -0.2021632755       12.7405481625
  H         3.5572446770       -1.8137674376       12.6883521405
  H         1.9056558428       -1.6034193550       12.9477044810
  H         3.1684629444       -1.2094095593       14.1116944060
