     194
 CELL 12.4294 12.4294 12.4294 90.0 90.0 90.0 i =   102020, time =    51010.000, E =     -1097.1014794879
  O        22.7197611893       -2.6989640369       16.0277069248
  H        23.1013419686       -3.2841987317       16.6923970060
  H        23.0678690729       -1.7739872136       16.3486498184
  O        26.0981500428      -11.3010271315       10.7428412842
  H        26.7775259819      -11.4297479165       11.4168084307
  H        25.4984397640      -12.0246596416       10.9576728643
  O        25.2790713657      -12.9131315911       18.3642697125
  H        25.8784090075      -12.1776272034       18.0326827669
  H        25.6240058863      -13.7002874638       17.9257485467
  O        20.4849259238       -4.5597696943       13.6900408933
  H        20.3538813271       -3.8765324595       14.3657866103
  H        21.0785366395       -4.2642866415       12.9995893636
  O        14.3362005888      -10.7877849601       17.5436652126
  H        15.1455862078      -10.6716694117       18.1035073052
  H        14.6857190278      -11.1062880655       16.6800980715
  O        30.0467763595       -9.2572708517       24.9366949252
  H        30.0513389865       -8.2683984112       24.8119159844
  H        30.0414984939       -9.7350261370       24.0197081267
  O        23.0926780746        1.2775131502        6.7054047533
  H        22.8284360411        1.9163056687        6.0009802809
  H        23.6296374800        0.5627386987        6.1771104626
  O        27.5628098232       -0.9258639363       15.5496753900
  H        28.4817293815       -1.1480211883       15.9684080568
  H        27.0035183983       -1.6894936333       15.9393264226
  O        22.4813513460       -6.0314473742        6.7663099728
  H        21.6433407560       -5.5192147368        6.9334700849
  H        22.9687558092       -6.1134090552        7.6263838730
  O        24.0348534780       -5.5127664724       13.1575136575
  H        24.9144646720       -5.9116346879       13.2309328508
  H        24.1278222327       -4.6078426271       13.4628591072
  O        24.6054498988       -7.0031404168        8.1608050862
  H        25.3909758881       -7.0401781429        7.5433713925
  H        24.4174554542       -7.9183238664        8.4677682614
  O        19.4611140024       -2.3808523819       10.3393312236
  H        18.9025351155       -1.7313569346       10.8524286114
  H        20.1998476627       -2.7079342780       10.8500190627
  O        17.5816851794       -1.3893135028       16.8247244539
  H        17.3171725731       -1.6390661175       17.6959426417
  H        17.9674529262       -0.4777764383       16.8616763854
  O        28.1269446051      -11.7303944431       13.0117111140
  H        28.2388106549      -10.8710510535       13.4595302772
  H        28.0807932072      -12.3944131941       13.7450624247
  O        22.3277828943       -6.5079510788       15.0153827375
  H        22.5904863324       -6.3411639742       14.0905068301
  H        21.7564935317       -5.7509516930       15.1153323582
  O        30.3886415399       -2.0895958203       13.8030290276
  H        30.2371617154       -1.8916733302       14.7775909799
  H        29.4546936554       -2.2405241862       13.5311018582
  O        31.7618621911       -5.8547931333       16.4920833240
  H        31.9515880202       -4.9246484396       16.2503625161
  H        32.1389873280       -5.7977699309       17.4313519294
  O        28.8796863139        1.2567175941       19.2645560432
  H        28.4256449862        1.5029851052       20.0923841383
  H        29.0035167409        0.3116744777       19.4659316283
  O        26.1650082289        5.8061296123       10.3577359465
  H        25.3073381857        5.9455476989        9.8428172058
  H        26.0814519529        5.4499104809       11.2888802991
  O        19.0728287381      -11.6128502291       16.3690582519
  H        19.2485403376      -11.1726985458       17.2294438593
  H        18.4399503612      -10.9826874424       16.0223941091
  O        29.3086823282       -1.7128448851        7.0403491235
  H        28.8503680583       -1.8387098324        7.8598643065
  H        30.2455463682       -1.7654982385        7.3529472121
  O        24.5096401181        1.3881553697       13.9935817581
  H        23.8588540108        1.9777372056       13.5988326287
  H        24.9202683723        0.8100634902       13.2945652260
  O        30.3748812606       -4.8001551079       23.0414929961
  H        31.0387178143       -4.1168131699       22.9233047165
  H        30.4098172407       -5.2700932671       22.1957442307
  O        23.8627876566       -4.1608622441        5.5570004190
  H        23.3925643041       -4.9234892004        5.8435090738
  H        24.1948499017       -3.6773313373        6.3531389128
  O        22.2959732154       -2.4561088025        8.3666564073
  H        22.0617266588       -3.0681041291        9.0635000319
  H        21.5050627613       -2.4787270333        7.7390259479
  O        29.0558631879       -6.9335641613       16.6864079473
  H        30.0253887919       -6.6534473984       16.8667777563
  H        28.7723134483       -6.3256153633       15.9362544203
  O        32.3161091630      -12.7230888820       12.7927706473
  H        32.2551523787      -12.2084161763       13.5957775330
  H        31.7589398965      -13.5135413914       13.0154793742
  O        30.4599320685       -6.4903049585       20.8642338724
  H        31.0856364965       -7.1832577421       21.1566009708
  H        29.5225130823       -6.7946631064       20.9233081505
  O        21.3451806064       -7.4244594398       10.9686157260
  H        20.8828678716       -7.9653875783       10.2903378104
  H        20.6304065662       -7.1266584710       11.5788888919
  O        20.1648682401       -8.5970361376       16.3620298096
  H        20.0167339100       -9.0895540445       15.5216736398
  H        20.2322537853       -7.6485856354       16.1281426532
  O        18.5333631375       -6.5529630399       12.6006390097
  H        18.5395336156       -5.8314911822       11.9555522513
  H        19.1877843072       -6.2706194757       13.2894170961
  O        25.5169886601       -3.7786130203       20.6857842302
  H        24.9746886128       -4.3213348530       21.3478652178
  H        25.3152358851       -2.8214079380       20.8004042092
  O        26.4494887248       -6.7748894468       13.0615125733
  H        27.1466026582       -6.1348105749       13.3469325987
  H        26.7031410096       -7.5328092813       13.5970248469
  O        23.3127843248       -5.4267857209       10.6956599201
  H        22.6756815483       -6.1390142857       10.7986440711
  H        23.8218736507       -5.5153420711       11.5122539986
  O        36.7430150149       -0.8037485001       11.6372611123
  H        36.7952110389       -1.5067594722       11.0165216058
  H        35.8093572199       -0.5478055312       11.4444704567
  O        31.6934687806        2.7910602095        6.4248782026
  H        30.8137524115        2.3199221066        6.5052865371
  H        31.8490852538        3.1477867448        5.5269583420
  O        32.3253165875       -5.1315841775       19.3447507057
  H        31.5420639560       -5.6742424283       19.6952991832
  H        32.0295733395       -4.2165400820       19.2142924619
  O        30.5488856971      -10.4752913620       10.0737296089
  H        29.6375685610      -10.2502874759        9.6658352738
  H        30.3927215930      -11.4479228218       10.2733727523
  O        27.8479950706       -7.3893715570       20.9091539437
  H        27.1376050634       -7.2096394450       21.6601615032
  H        27.4875499341       -7.1276145040       20.0517175673
  O        28.0350298965       -9.9021384636        9.0981225736
  H        27.3749785145      -10.0753685758        9.7406939917
  H        27.9431461704       -8.9668501308        8.8020041529
  O        20.1343043322       -3.1777251455        3.7571766531
  H        19.4073122727       -2.5727424138        3.9051588405
  H        21.0565910705       -2.7305425293        3.7783602196
  O        27.7525177315       -2.9269663837       25.9076965797
  H        26.9569349971       -2.3126453400       26.0431557352
  H        27.5469634303       -3.3195687389       24.9775651681
  O        27.8266112566       -1.5795534233       21.9086933268
  H        27.7021954392       -2.3907303661       22.3684066152
  H        26.9499121493       -1.1750661753       21.7399598259
  O        20.6827280254        0.3560658272        7.5590592885
  H        21.4598634763        0.7218358014        7.0696555916
  H        19.9809901069        1.0489670669        7.5032826336
  O        25.0444031070       -1.0650508177       20.9357791603
  H        25.0793592636       -0.7147685036       19.9600774610
  H        24.1286296007       -1.3276876122       20.9606479113
  O        32.0412831505       -2.1153340738        7.7520354698
  H        32.4179365939       -1.1944862408        7.5514733525
  H        31.9409470738       -2.1140267733        8.7485555109
  O        27.7947751090       -3.9067851721       10.9221849601
  H        27.3290125275       -4.7652723072       10.6545195419
  H        28.7546979198       -4.2146062452       10.8599979448
  O        26.4148478680       -3.0762357621       17.4165495499
  H        25.7149379066       -3.7772024142       17.4391130892
  H        26.8908491850       -3.3080921214       18.2304353557
  O        23.0574904228        0.0516988144       16.3054208300
  H        22.1034010099        0.0359527044       16.0716216417
  H        23.4765947922        0.4529393683       15.5112652747
  O        21.9573108618       -3.2119192203       11.4146614707
  H        22.4543085897       -4.0339280073       11.1419309578
  H        22.5757289401       -2.6681405772       11.9664676286
  O        35.0039189815       -9.7236796232       12.3884483225
  H        34.7892784947       -8.9795348038       11.8436042501
  H        34.9404927425      -10.5562466598       11.8047305097
  O        21.7790978680      -12.3623289877       10.9628940417
  H        21.3705861092      -12.2548596606       10.0434497505
  H        21.0930719831      -12.5804351134       11.5869585947
  O        16.2663766675       -5.2676421626       14.4609022691
  H        17.0160135043       -5.3077754250       13.7961052159
  H        16.1121045419       -4.3272120512       14.4533442303
  O        24.2338014051       -2.9293526253       13.8149627136
  H        24.2187803824       -2.1516759634       13.1659152466
  H        23.6216459829       -2.7012095069       14.5672803028
  O        24.2773727867        2.8196238795        8.6368555711
  H        23.6992637753        2.4660206729        7.9314575092
  H        24.8399559142        2.0620009321        8.8021644167
  O        26.0439144070       -8.7855704375       14.8619092740
  H        25.3703910246       -9.4785033235       14.6930138088
  H        26.8593040321       -9.2039252820       15.0173100838
  O        22.5758024978       -8.4321068853       17.8225776959
  H        22.2366350794       -7.7883207520       18.3803011517
  H        21.8617638402       -8.4643962650       17.1662319879
  O        14.4302470241       -6.7592654511       18.2937812969
  H        14.6829860969       -5.8630789724       18.5324475611
  H        15.2808601550       -7.0277169526       17.8358530270
  O        29.7589396065       -0.4636452779       10.8645334350
  H        28.8392952267       -0.6591003096       10.5336100657
  H        29.5443089874       -0.1151591944       11.7643573335
  O        28.0275336717       -4.4421786234       19.3822319829
  H        27.3324039776       -4.2041027928       20.1082439694
  H        28.6452653028       -3.6988354971       19.1821249016
  O        32.4262056920       -9.1002164240        8.8879789137
  H        32.3115406612       -8.9336545442        7.9133567950
  H        31.6123129617       -9.5370584503        9.2904179787
  O        16.9135146570       -9.5561281071        2.8057384341
  H        17.0561111261       -9.2611811964        1.8884210144
  H        16.8020252609       -8.7162236564        3.3214220140
  O        20.1127139024       -9.8758352248        1.3750779414
  H        20.9946210738       -9.7841243580        1.0049619359
  H        19.5164152973       -9.4204464141        0.7351147476
  N        24.6095327612       -6.9509976948       16.6224349442
  H        25.2821164332       -6.4612531172       17.1908561581
  H        25.1787546439       -7.6307617816       16.0092529384
  H        24.0215661935       -6.4534388863       15.9374995656
  H        23.9074449161       -7.4723510013       17.1632521804
