     194
 CELL 12.4294 12.4294 12.4294 90.0 90.0 90.0 i =    29220, time =    14610.000, E =     -1097.1192387476
  O        -9.1860975521        3.4559532560        6.5088565854
  H        -9.0192451411        2.5381928178        6.1638701271
  H        -8.9631292643        4.1316784431        5.8629214451
  O         0.9278030116       -7.9872443215        3.7416548320
  H         1.5819402479       -7.2486222137        4.0159336363
  H         1.0708400324       -8.6939367887        4.4074715636
  O        -3.8578167646       -7.1080910874        7.2139938291
  H        -4.4030781965       -6.3068923887        7.3480910939
  H        -3.0273734424       -6.9273651701        6.7328100631
  O       -10.2368121822        0.2258602297        6.8217425188
  H       -10.5175503640       -0.6689053032        7.0096277076
  H        -9.5791301177        0.5358092922        7.4895785999
  O       -17.8185811099       -4.8289927315        7.3507640843
  H       -18.2152751373       -4.6796219964        8.2086310427
  H       -17.4391289198       -3.9420836424        7.0589616807
  O        -3.1593919785       -2.2453194745       14.2367150099
  H        -2.5187775428       -1.4384182864       14.2061149925
  H        -2.6121840117       -2.9487838047       13.8648560423
  O        -4.1142382195        4.6376041038       -2.5094923065
  H        -3.2235175015        4.3578344342       -2.0586486525
  H        -3.9111799162        4.9518130565       -3.4162008038
  O        -1.4543113463        4.8344023149        5.8729906540
  H        -1.0881466081        4.1043483062        6.3830930420
  H        -0.8701615255        4.7669689592        5.1134824214
  O       -10.4071468452       -3.5020830313       -1.3576834241
  H       -10.5710449428       -4.3946168251       -1.7114104499
  H       -10.5432689636       -3.4870627039       -0.4213617309
  O        -2.8723380193        2.1764868492        1.5281112966
  H        -3.6882102983        1.6249900410        1.5072968059
  H        -2.1860105314        1.5170679489        1.8000733405
  O        -2.5723876727       -4.1904772245       -1.7560166853
  H        -1.9788611282       -3.3843456611       -1.9172743962
  H        -2.3839331118       -4.5160492075       -0.8747591906
  O        -7.6856913394        5.6165251854        3.8418258096
  H        -7.1366568956        5.9000506425        3.0311825911
  H        -7.0781436868        5.0372804612        4.3718033704
  O       -12.0671658400        3.4828505767        7.5566937469
  H       -12.3993323495        3.0298698507        8.3799196500
  H       -11.2084688168        3.1692489109        7.1774166092
  O        -4.2793985813       -3.3543494059        3.8160302966
  H        -3.6523588895       -2.7969581917        3.2882695420
  H        -4.4189808744       -3.1733837056        4.7488523381
  O        -5.0785987797        0.6170345561        2.2442100558
  H        -5.1306501301        0.0756362510        1.4644807023
  H        -4.8200855433        0.0895624740        3.0674770882
  O         0.8110622962        1.7719369016        4.8529076017
  H         1.3523786662        1.4891277265        4.1204038164
  H         1.2533967687        1.3309520876        5.6611946123
  O        -1.3629131645        0.1454458240        2.1951833153
  H        -0.9955494617       -0.2653020062        3.0138641655
  H        -0.5421467930        0.2718428010        1.6199734965
  O        -1.4134186550        5.8970526146        9.3549914013
  H        -1.5828145552        5.7217863824        8.4286054686
  H        -1.8242099397        6.7466063517        9.6528012157
  O        -3.7070369381        6.3393510348        2.3759329557
  H        -3.4079935620        5.3829406457        2.6692683254
  H        -3.6097018173        6.9246449282        3.1279825401
  O        -8.8994310173       -7.8635963427        9.3767909295
  H        -8.0748225619       -7.4250866753        9.2807327632
  H        -9.1046123208       -8.1432192669        8.4354755043
  O        -0.9283747664        2.2891965099       -3.0273304965
  H        -0.3731093592        1.5913834122       -2.5377099709
  H        -1.4520974921        2.7059142621       -2.2413185883
  O        -7.7262319337        7.4494601399        6.0672630755
  H        -6.7791490526        7.4425198745        6.4617427823
  H        -7.8005595266        6.7884600840        5.3451145917
  O         0.7293104628        0.1576575123       10.5450505262
  H         0.3426889465       -0.6745439293       10.2221523382
  H         1.5417850600        0.3438486811       10.0789752750
  O        -8.4215989774       -1.9295160312       -2.4873015817
  H        -7.8733624144       -1.5477539238       -1.7827780668
  H        -9.1388216495       -2.5137305478       -2.1055351976
  O        -8.2040782242        3.7080751607        1.0187963606
  H        -7.7843884574        3.1310236991        1.6978847550
  H        -7.8246951145        4.5876828751        1.1435752628
  O        -0.1664176758       -1.2800275716        4.6175307634
  H        -0.2795176893       -2.1708449962        4.1883334624
  H         0.7698243367       -1.0459772584        4.7330767142
  O         1.6961911553       -5.3647935136        4.7345791038
  H         1.4136477892       -5.4146559759        5.6694596002
  H         2.4405950348       -4.7482235524        4.6336934901
  O        -3.2542004835        0.7387815804        8.0452469317
  H        -3.8158491608        0.2247889063        8.7243761098
  H        -2.7658553417        1.3329957339        8.7067457988
  O       -10.2263737713       -3.2882583956        2.0564473316
  H       -11.0756278704       -3.4547584785        2.6347590527
  H        -9.4508348212       -3.2803609742        2.6427833571
  O        -7.1242188953       -4.5767935251        9.5086992624
  H        -6.7974155042       -3.8429851672       10.0688967359
  H        -8.0011540551       -4.2492230407        9.0776354640
  O        -9.9782133091       -0.7809682424        3.9521791390
  H        -9.6669204593       -0.6016649342        3.0231619986
  H        -9.3025822952       -1.4666843172        4.2151600288
  O        -5.8294259082        1.8689796747        9.5531622605
  H        -5.0246664241        2.4049326267        9.4188979008
  H        -6.4412569566        2.3248527418       10.1695053748
  O        -6.3846864771       -3.3873211617        2.0235273151
  H        -6.6225281599       -4.3466065983        1.9174860009
  H        -5.5581816046       -3.3218183531        2.6264404306
  O        -7.8377749112        1.4007496306        2.5533143061
  H        -8.3403846431        0.8047514104        1.9166362581
  H        -6.9111468049        0.9791621489        2.4442457929
  O         5.7043086160       -0.3518627718        0.0169706107
  H         5.4037582644       -1.1961732979        0.4369579698
  H         4.9833269851        0.1402656026       -0.4428245813
  O         4.1793600143        2.5089170321       -1.2527758134
  H         3.8853207252        2.9152875062       -0.3922755501
  H         4.0301076417        3.3691129595       -1.8160283155
  O        -0.4772347925       -2.4231187534       10.0222147792
  H        -0.1031555671       -2.4891463392        9.1404639418
  H         0.2962786372       -2.7464094491       10.6024538989
  O        -0.2977288919       -4.0622426734        3.6090199596
  H        -0.7705229649       -4.3866641563        2.7701755266
  H         0.2915498991       -4.7604924654        3.9098268438
  O        -5.3803931290       -3.3934397147       11.7687389797
  H        -4.4817380381       -3.8346049704       11.8394669514
  H        -5.7032273853       -3.3728374369       12.6786019449
  O        -0.0899490525       -6.9195169496        0.1758473634
  H         0.4798926785       -7.6389654299        0.4880042277
  H         0.3243398652       -6.6685152616       -0.6780855427
  O       -11.1051906457       -2.2949130949       -4.8039615611
  H       -10.4544271882       -2.9892431400       -4.6411143181
  H       -11.5496512904       -2.5842628175       -5.6108072858
  O        -2.0127934648        3.7287598964       11.5325856845
  H        -1.2375960031        4.3133388012       11.8022131776
  H        -2.3043572853        3.4230687338       12.4209622664
  O        -5.0766739217       -1.0915415539       10.0705661785
  H        -5.1494717676       -1.8039757225       10.7509912199
  H        -5.4833913386       -0.2662113205       10.4719266241
  O        -6.3536860457        6.3127278434        1.3494990457
  H        -6.2090922096        6.1382571923        0.3762029462
  H        -5.4654647095        6.2153115348        1.8165350896
  O        -1.9379397344        1.4452993284        5.2683954451
  H        -2.0157509095        1.3338181108        6.2684111074
  H        -0.9495606276        1.2720384179        5.0793358967
  O         1.2446245088        3.3935594377        1.3283606520
  H         2.2553207331        3.4737242182        1.2664032689
  H         1.2034535589        3.8854179598        2.2051621545
  O         0.7991605823        0.6149886512        0.7291347512
  H         0.8926829011        1.5986036232        0.8272752486
  H         0.6173131667        0.5098352145       -0.2750192359
  O        -3.3124775979        3.8557906164        3.5541937524
  H        -3.1311136059        3.1696986462        2.8227289287
  H        -2.7140497532        3.6600643761        4.2742969976
  O        -6.5373167845        5.6918543637       11.0740607956
  H        -6.6663047034        6.5001989226       10.4493386694
  H        -5.7706347898        5.2434294677       10.6610680810
  O        -8.2221341810        1.0738804340        5.3072525486
  H        -8.0865237488        1.3236016419        4.3293689300
  H        -8.9832332889        0.4449884782        5.3096954242
  O         3.3695034090        0.7334858510       -3.1951828862
  H         3.6105486564       -0.1913897218       -2.9107451437
  H         3.7095768353        1.3943925523       -2.5400298851
  O        -8.3257298319       -2.9107048568        4.3239514751
  H        -8.0257673317       -3.4222098878        5.1899646628
  H        -7.5570372817       -2.9850353986        3.7172660143
  O        -9.2782194360       -0.6360880841        1.1274399361
  H        -9.7845034282       -1.3450376352        1.6292066137
  H       -10.0361470099       -0.1518031694        0.7567349791
  O        -5.5627855916        4.2909475925        4.9307576569
  H        -4.9927291901        4.7071822562        5.5409367856
  H        -4.8447083895        3.8906555348        4.4057113374
  O        -1.6888305628        7.6117210462        0.8820515031
  H        -1.1333677584        6.8686996459        0.5887990094
  H        -2.4193040129        7.1533097993        1.3046438858
  O        -4.6455669029       -2.3404206947        6.3355384737
  H        -5.4849810306       -2.0818101381        6.9893849830
  H        -3.8227324345       -2.3011176081        6.8917117214
  O        -6.6253689964       -1.3130701294        7.8164884489
  H        -6.1152248095       -1.2508369814        8.6802348654
  H        -7.5435138836       -1.5731215913        7.9197437650
  O       -14.4135013409       -1.6888669685        7.1401613065
  H       -14.0777779522       -1.5738565642        6.2233322777
  H       -14.3601018142       -0.7884479904        7.5619821321
  O         0.9482605654        6.5046544960        7.2859788818
  H         0.8743794420        5.5593963648        7.1936421623
  H         0.0254161008        6.8775417643        7.4133231506
  O        -4.6381639221       -0.1336844246        4.7173049426
  H        -4.5763253956       -0.8805534646        5.3417040152
  H        -3.7788989021        0.2982013739        4.6934540094
  O         1.3306900425       -5.9601874871       -2.1461253924
  H         2.0149942720       -6.5896281716       -2.4828271694
  H         0.5292066600       -6.1107053409       -2.5913873449
  O       -13.6445023225       -4.4050151349       -5.5631651354
  H       -13.9288801918       -4.4910148320       -6.4881069785
  H       -13.9722227207       -3.5354295315       -5.2337818877
  O        -9.4625450157       -4.2803830997       -4.3525172002
  H       -10.0991999077       -4.9907607988       -4.2404362929
  H        -8.9335971262       -4.5092007805       -5.1533194452
  N        -5.9288107889        1.8141154180        6.6718134828
  H        -5.7352413727        2.7808147401        6.4745340345
  H        -5.1029060778        1.2802223061        6.3165035963
  H        -6.8238076604        1.5175836310        6.1210793186
  H        -6.0941818479        1.7466721183        7.7062820821
