     194
 CELL 12.4294 12.4294 12.4294 90.0 90.0 90.0 i =    40020, time =    20010.000, E =     -1097.1528724298
  O        -2.8103886875        2.0617310835        9.4841510077
  H        -3.4514992528        1.9925410987        8.6675790657
  H        -1.9473115747        2.1125156810        9.0312668062
  O         3.4433536855       -9.4852492747        6.3508973591
  H         2.9969128779       -9.1628394858        5.5107864731
  H         4.3990490862       -9.6353195492        6.1554301373
  O         0.0799261926       -9.9055372691        8.7469109668
  H         0.0914124111       -9.0586482844        9.2819480549
  H         0.5678685773      -10.6530408919        9.2320890278
  O        -5.5535208690       -1.2740633042       10.6970212290
  H        -5.6531759308       -2.2780448063       10.7893716389
  H        -6.2758040991       -0.8914905413       11.2693538567
  O       -12.1869354584       -7.2109291592        9.4197023840
  H       -12.0379782979       -6.7232328368       10.2132341154
  H       -11.2921865456       -7.2169738637        8.9767566693
  O         3.3048405802       -2.8295071013       18.2181106424
  H         3.1266969099       -2.3704757985       19.0613625302
  H         3.9316740849       -2.3067763859       17.6383139059
  O        -0.2405262102        2.9748701764       -0.0968190470
  H         0.7047162905        3.3913297860       -0.2841828421
  H        -0.4648719352        2.4531162600       -0.8899693665
  O         2.5936680960        4.7950553423        8.3458688726
  H         2.8646598618        4.0381623258        7.7446396012
  H         2.7440512719        5.5353660226        7.7207986590
  O        -4.5780517124       -4.1131185648        2.5212068000
  H        -4.7230438667       -5.0358555053        2.3859004778
  H        -4.9887090155       -3.9420718476        3.4441005275
  O         0.7106496274       -0.9661027878        4.6388034279
  H         0.2114276834       -1.2661195893        5.4715937584
  H         0.8510413499       -1.7766321967        4.1285921208
  O         2.1623837372       -4.9283536042        1.1170799993
  H         3.0745452612       -4.6696699016        0.7663104544
  H         2.2505940034       -5.6321610033        1.8036886558
  O        -2.8845716627        3.7987244346        5.2537666995
  H        -2.8196301478        4.6204069537        4.7358297289
  H        -2.0317477151        3.3197998784        5.2962826824
  O        -7.0569492740        0.2185323020       12.7510488987
  H        -7.9841324791        0.4138402829       12.3962278855
  H        -6.6079176865        1.1188586480       12.9741187104
  O         1.9995411659       -5.5342160446        6.5325047023
  H         2.6508593691       -4.9631064461        6.0681776205
  H         1.4233675445       -4.8696404475        6.9376131462
  O        -1.2909751964       -1.2774354877        6.4834263371
  H        -1.6450304004       -2.1870110760        6.4672334728
  H        -1.0807005146       -1.1313099647        7.4471433506
  O         4.1150572863        1.7408825419        8.9656044704
  H         4.8776866487        1.1995371003        8.6539093983
  H         4.6035104111        2.3873512788        9.5004931148
  O         2.9402003120       -1.6775195269        8.4761289111
  H         2.0667767018       -2.1791775035        8.4120520375
  H         2.6356341120       -0.7811612301        8.4833296684
  O         2.3024670014        4.0060813479       12.7126070805
  H         2.7986509788        4.5409530240       12.0191370614
  H         2.4295162100        4.3300794829       13.6627216606
  O         0.9086168022        4.6052781948        5.0368966943
  H         0.4313211353        3.8246267774        5.6031260439
  H         0.9359474937        5.4111524909        5.5659530459
  O        -3.6032467117       -8.4912208677       11.5278415426
  H        -2.8774559614       -8.2207937985       12.1489346444
  H        -3.1686851400       -8.9871528375       10.7752748600
  O         2.5155945580        1.3033778323        0.0826748487
  H         2.1168751146        0.8385293120        0.8303798995
  H         2.6047909041        2.3337922640        0.1826894608
  O        -1.9737084541        6.4413752905        8.6366656846
  H        -1.1582414925        6.0435492457        8.9656572293
  H        -2.6392607051        5.7641026255        8.4909495250
  O         4.3302752898       -1.9277345256       14.2321391406
  H         3.6980224371       -2.0151925343       13.4928056988
  H         4.8574842591       -1.0908470599       13.8679372434
  O        -3.3368342246       -2.2285897857        0.7499565778
  H        -3.0115411450       -2.0128966900        1.6186262668
  H        -3.7091971487       -3.0972366823        0.8989034349
  O        -4.3934916954        2.2392137596        3.5894361900
  H        -4.1302996702        1.3328135464        3.5091385442
  H        -3.7004271777        2.7539548608        4.1326999200
  O         4.9512655250       -4.0816480197        8.5226479513
  H         5.0040782005       -4.6171919148        7.7139864966
  H         4.7059262247       -3.1564498479        8.2601321161
  O         7.5754724045       -7.5167990031        7.7536114974
  H         6.9552641792       -7.6016520275        8.5014371147
  H         7.9905546750       -8.4018730986        7.4916169751
  O         2.7011449281       -1.9753693290       11.5430144986
  H         1.7689799683       -1.8452539582       11.8904054684
  H         2.8929193210       -1.3077756386       10.8014699801
  O        -5.1183519446       -3.5775205294        5.1220140062
  H        -5.6124259711       -4.3295154970        5.6155820427
  H        -4.3087141671       -3.6230726792        5.6436050227
  O        -0.0640229516       -5.3572796044       11.9952895130
  H         0.7563544564       -5.1348878367       12.5429963200
  H        -0.3244748804       -4.5773770272       11.4889338418
  O        -6.0913542657        0.3176055404        8.2270421626
  H        -6.1290384062       -0.2147058453        7.3986143057
  H        -6.1073361269       -0.3649604522        8.9397804186
  O        -1.3398137038        0.5265130261       13.3063052662
  H        -0.8281357458        1.4087401037       13.2973626988
  H        -1.5800571261        0.2638375691       14.2272962004
  O        -1.6756251416       -4.3893759412        3.6329186760
  H        -2.6099624305       -4.2113844050        3.3735904901
  H        -1.5175562840       -5.3535228708        3.3920080594
  O        -3.2910220959        0.0304174076        5.3247678221
  H        -3.9969128329       -0.5568984675        5.6895147656
  H        -2.4710503198       -0.2946182882        5.8416665323
  O        10.6546184484       -0.7774162233        3.0758810153
  H        10.1329310144       -0.3203985122        3.8382309692
  H        11.5302381536       -0.8988021042        3.4688416218
  O         6.5955415004        2.6368202724        1.2205500478
  H         7.0747008808        2.3412823155        2.0225049874
  H         7.3125041852        2.8142525399        0.6323379890
  O         5.0202764763       -4.7524278240       13.0029730713
  H         5.5287663336       -4.3437868373       12.2074492583
  H         5.0423021501       -3.9764036943       13.6074946391
  O         5.9642560589       -5.3589323495        6.4464512130
  H         5.5745849912       -5.8384387169        5.6685963494
  H         6.5438885680       -6.0809758639        6.9022324401
  O         0.6380238815       -2.9860416216       14.8504411568
  H         1.3913556547       -3.4557490018       14.3868568044
  H        -0.0203503489       -3.7154173222       14.9716787523
  O         5.0160909547       -6.8335960421        4.3301431077
  H         5.3117938587       -7.6880033061        4.7272024904
  H         5.6036218637       -6.7870848696        3.5055784616
  O        -5.7616044021       -3.8787855809       -1.6851815041
  H        -4.9898526228       -4.5100169912       -1.8704939553
  H        -6.2536657813       -3.8670269665       -2.5554547569
  O         1.4386628812        0.9714917584       15.1770503914
  H         1.5773433270        1.9329316887       15.2109772360
  H         1.4829842422        0.5838391243       16.0966135849
  O         0.1718221994       -1.5265525608       12.7310669602
  H         0.2051325744       -1.9779822616       13.6243129859
  H        -0.4017427053       -0.7042305333       12.8734814626
  O        -1.5422632379        5.3419212794        3.4525038943
  H        -1.5598932275        5.0024560611        2.5122646650
  H        -0.6952945018        5.0523259008        3.8918318298
  O         1.8086659923        0.7123373932        9.8930191537
  H         2.0287662890        0.7113255249       10.8646161444
  H         2.4640337760        1.2836629255        9.4480062579
  O         6.0432607265        3.1724599995        5.4588289985
  H         6.2565091285        2.3738410780        4.8643588062
  H         6.8294684144        3.3216844143        6.0427143836
  O         5.1577568407        0.4454294190        3.8547771193
  H         5.7671893560        0.2500711029        3.0622637691
  H         4.2695428112        0.0915082144        3.5668342912
  O         1.9155405806        0.6735276420        6.7435759223
  H         1.8995593417        0.0977152979        5.9289363131
  H         2.6219952724        1.3368720947        6.6303631233
  O        -1.7523399550        4.9391259578       12.9817244093
  H        -1.2785946636        5.7173702501       12.6063035507
  H        -1.0807305752        4.2136247697       12.8649246939
  O        -4.2788239959        1.9821169221        7.1898521829
  H        -3.8698523921        1.3610638167        6.4866488890
  H        -5.0045797486        1.4090251142        7.4772688836
  O         7.3400073974       -0.4174888524        2.3707387365
  H         7.5293742185       -1.0474175922        3.1022046791
  H         7.4870746394       -0.9416291946        1.5529059121
  O        -2.4913867346       -3.7786722288        6.1871372370
  H        -2.4458513145       -4.5433148583        6.8548261014
  H        -2.1052958815       -4.2029150922        5.3739770432
  O        -6.1140199698       -1.1858306734        5.8133471400
  H        -5.9110547191       -2.1263322204        5.5550234347
  H        -6.5111363936       -0.6045891533        5.1292303074
  O        -0.3090684141        2.5738358962        6.1045062417
  H        -0.3411554880        2.5932017585        7.1074716550
  H         0.2888641557        1.7690690342        5.9864865500
  O         2.4912583127        4.9925215514        2.6785547674
  H         3.3860131468        5.0116048753        2.9658349719
  H         1.9196371817        4.8441150637        3.4861108791
  O         0.5449794583       -3.7019575397        8.5383250882
  H        -0.1461865816       -3.4198217532        9.1155331520
  H         1.2180902571       -4.1558655228        9.1252761663
  O        -1.2844260882       -2.6399721055       10.6531266643
  H        -0.7876484838       -2.3382681661       11.4636143283
  H        -2.0253898672       -3.2108616969       11.0016934468
  O        -9.7969067636       -4.4272072326       10.0718278512
  H        -9.0144931045       -4.5854920507        9.4653514713
  H        -9.6043706220       -3.5915065583       10.5451235350
  O         6.2425022564        4.4377079463       10.0910414577
  H         6.9943492166        4.2754483332       10.6949761397
  H         5.5538567794        4.9532964350       10.5193220348
  O        -0.5199392513       -0.3942451190        8.9023894920
  H        -0.7246041461       -1.2565168169        9.3861980191
  H         0.4566258763       -0.2959795572        9.0967722769
  O         6.4106978519       -6.6578525225        1.8911230680
  H         6.4165968534       -7.5197537397        1.4140930752
  H         5.8869619600       -6.0563787786        1.3071948953
  O        -8.6680983338       -7.0868661916       -1.5284846957
  H        -8.9392195886       -7.3441234344       -2.4769161523
  H        -9.0887475270       -6.2191769310       -1.4413393301
  O        -3.3486516783       -5.1710844953       -1.6469859619
  H        -3.1142606322       -5.9532226708       -1.0989577203
  H        -2.8448398628       -5.2209463259       -2.4540665139
  N        -3.0126229281       -0.1175734404       11.1386859788
  H        -2.8602445945        0.5921252882       10.4261939525
  H        -2.4216164704       -0.9662752425       11.0364930139
  H        -3.9847885676       -0.4222609353       11.2747280118
  H        -2.6901429883        0.3240880913       12.0299749702
