     194
 CELL 12.4294 12.4294 12.4294 90.0 90.0 90.0 i =    95220, time =    47610.000, E =     -1097.1409734031
  O        19.4609894474       -1.2421946824       13.8602190203
  H        18.6720591836       -1.9002473111       13.6961232155
  H        19.2904468953       -0.7575081688       14.7018188377
  O        25.8981214068      -11.3697708623       10.2017911750
  H        25.8869731405      -11.0882243787       11.1602282340
  H        26.2490352784      -12.2654966464       10.1485683641
  O        21.6582217661      -12.8765227480       16.9535294108
  H        21.5746431827      -11.9408785659       16.5866783249
  H        22.3238907241      -13.2673716818       16.3671586378
  O        17.6353645907       -3.4848961582       14.4065350209
  H        18.1322649579       -3.7512081279       15.2222258599
  H        16.7332402133       -3.1790088508       14.6653833648
  O        11.9227143293       -9.8670457886       16.5135265886
  H        12.7292882167       -9.7174280957       17.0396180430
  H        12.1945740924      -10.4263197065       15.7451786164
  O        31.3044763249       -6.8825081584       23.7576520632
  H        31.1216473338       -6.0043744072       24.1418821135
  H        30.3925682908       -7.2101960371       23.4624635327
  O        21.4215256656        2.4441818597        4.5287400829
  H        21.0099881990        3.0249685273        3.8267064304
  H        22.3797983387        2.7211002504        4.5787876097
  O        24.5973229050        0.6636634494       14.6557050405
  H        25.2814070220        0.0755822972       15.0062379751
  H        23.8698826502       -0.0071761234       14.5443821470
  O        18.0084994054       -6.4139198555        4.3761022532
  H        17.1490575852       -5.9543848913        4.1355520328
  H        17.7010441298       -6.9931805723        5.1108379476
  O        23.2638211703       -3.6897276805       11.4487987697
  H        23.4571140234       -4.4701837149       10.8491021733
  H        24.0722915415       -3.3131987891       11.9124701708
  O        23.1826371304       -7.9603137718        7.3781957688
  H        23.7921047018       -7.6877375747        6.6992572562
  H        23.4472331572       -8.9200985975        7.5935496252
  O        18.4414571653       -1.3139248252        9.6794091523
  H        18.3517244628       -0.6478554470       10.3613010983
  H        19.3318967789       -1.7182819250        9.9184213562
  O        14.3951845756       -0.5155018116       15.7768838493
  H        14.7394916074       -0.4608945008       16.7162142740
  H        15.0758406461        0.0376676584       15.2734786524
  O        25.3316011194      -10.2863411118       12.4460969694
  H        26.1996217633      -10.0105178174       12.8911262822
  H        24.9530628346      -11.0345103466       13.0714042673
  O        21.6981931166       -3.4914540043       13.9408423025
  H        21.9755728096       -3.6463278587       12.9580429428
  H        20.8001207132       -3.0656621070       13.8814522963
  O        27.4999635124       -3.0348381895       14.9440849495
  H        26.8618115608       -2.9870065164       14.1957036569
  H        27.3176260716       -2.2189148990       15.4985530083
  O        28.0434981898       -5.3877856846       16.3379083431
  H        27.7780481404       -4.6129939656       15.7812373049
  H        27.8393276009       -5.0288341005       17.2391887953
  O        26.2197146424        2.3726348353       18.6267938208
  H        25.6458124616        2.2801317467       19.4835688276
  H        27.1707962263        2.2228131686       18.9412487149
  O        23.7675366875        6.1216493749        9.8637495992
  H        23.3554716517        5.3936350676        9.3605784124
  H        24.1879138026        5.6951376939       10.6604669102
  O        17.1661241349      -10.4997020604       16.5796416567
  H        17.0666328341      -10.3590462667       17.5217912531
  H        17.7675107542       -9.7800046066       16.2353710974
  O        28.1260223581       -1.4001612828        5.9576702723
  H        27.3919947378       -1.1362201492        6.5539789417
  H        28.9033964783       -0.9525868839        6.4374576271
  O        22.0522867967        2.8881745892       13.1107856007
  H        22.3556907652        2.9044826032       12.2058842593
  H        21.7877236061        1.9230831385       13.3280482132
  O        28.9671053597       -3.2363648682       22.9615139138
  H        29.5695178355       -2.6937896075       22.4127624033
  H        28.5941858662       -3.8980073551       22.3042568399
  O        20.7631975134       -3.0759292429        4.9316473269
  H        20.8076330937       -2.0954136196        4.9544536541
  H        19.8155070881       -3.3888307471        4.8674060189
  O        22.7193304966       -3.2293104534        6.9018125826
  H        22.1848665496       -3.7315801810        7.5382441061
  H        22.0231744022       -3.1169608054        6.1771044109
  O        26.3420871031       -7.3687146634       15.7118272463
  H        26.8951721589       -6.5462998408       15.8617654970
  H        25.5770297971       -7.1023156225       15.1929975804
  O        31.4199860137      -11.6103668816       11.5247066305
  H        31.4342736364      -10.7923063717       12.0783473872
  H        31.7161557172      -12.1887063608       12.2677403612
  O        28.5402697951       -5.4049013549       20.6997497229
  H        29.4071927848       -5.8481160322       20.5351132237
  H        27.9960573638       -6.1044239053       21.1324737774
  O        20.3584398735       -7.2767945332        9.0298814614
  H        19.9031666375       -7.2703227332        9.9445109238
  H        21.0512575161       -7.9295739843        9.2265848553
  O        19.1872929579       -8.7227161409       15.9408263658
  H        19.1220954598       -8.9580838343       14.9407684342
  H        18.7257246291       -7.8097986297       16.1331711515
  O        18.5357552660       -4.3367958214       11.9841931397
  H        17.7767958664       -4.0180363047       11.4480936181
  H        18.3583035935       -4.1045958617       12.9207104864
  O        24.6975248466       -1.7949345091       22.0096084352
  H        24.2322181100       -2.6266780780       21.9408416490
  H        24.0112474942       -1.2711872369       22.4667915859
  O        25.0615570352       -7.4755534236       12.0091823714
  H        25.7198744620       -6.7756651065       12.2605861793
  H        25.1420095714       -8.2846048594       12.5295521349
  O        21.6286094285       -4.7802184540        8.7820834696
  H        21.0208148055       -5.5621659110        8.8008652737
  H        22.3602927213       -5.2733667410        9.3253720745
  O        35.0100041814       -0.7427567667       10.9610391373
  H        34.5747399084       -0.3382990650       10.1968892895
  H        34.6459993054       -1.6601340170       10.9935296793
  O        29.5641451322        2.3121766653        7.1256101729
  H        29.0740684567        2.7079882569        7.9619064330
  H        30.0434378473        1.5358654869        7.5445747126
  O        27.4632441083       -4.0197827396       18.5632365612
  H        27.9229996413       -4.5400667419       19.2509787101
  H        27.9314498255       -3.0912543403       18.6385628200
  O        29.1188296957       -8.3336479792       11.2571453374
  H        28.5329295166       -8.6688688678       10.4555160106
  H        29.7894253152       -9.0496007769       11.3734177993
  O        26.4567533572       -7.1554586850       20.7704133239
  H        25.6376509930       -7.0475354358       21.2790434572
  H        26.1594919484       -7.2674214468       19.8229309347
  O        27.7166167147       -9.3632859168        9.1338925211
  H        27.1893327265      -10.1440268298        9.4323049107
  H        27.0329554759       -8.6767177248        8.7956933316
  O        18.1491937882       -3.2383257343        4.9574492161
  H        17.3281495991       -3.7745798017        5.0332466717
  H        17.8562971328       -2.3675701517        4.6976005695
  O        25.3855464704       -2.8794957843       25.3130728599
  H        24.7992076951       -2.4466355772       25.9754312047
  H        25.9704049922       -2.2426502996       24.8186294695
  O        25.7254774500       -0.5161432588       19.6259175031
  H        25.1480980214       -0.9178708431       20.2962180004
  H        25.0313087893       -0.2504434545       18.9781400286
  O        20.0205895662        1.8499537633        6.7140703149
  H        20.5458088056        2.1362402916        5.9170359022
  H        19.4452799492        2.6180956872        6.8425454762
  O        22.6372698234       -0.2491789956       19.7320059971
  H        22.3638193515       -0.1305592710       18.7816363436
  H        22.7300028754       -1.2093850613       19.7849595910
  O        30.4534557453       -0.3460063277        7.0251912952
  H        31.2464031947        0.1151991567        6.6424343290
  H        30.8388086430       -0.7690331127        7.8035990438
  O        27.1104270281       -1.1382280468       11.8803939242
  H        27.3965941783       -0.5531181167       12.5995439606
  H        27.8907880622       -1.7683494623       11.6443519416
  O        23.8590577654       -2.1180698381       15.1528654615
  H        22.9542609628       -2.3579200355       14.8494122951
  H        24.1190539646       -2.7833484328       15.7956564361
  O        18.7518699016       -0.3099711561       16.2980911409
  H        18.2540606255        0.5822363303       16.3874902250
  H        19.5890968431       -0.2395349267       16.8049753528
  O        20.4785918433       -2.7754364338       10.4915303099
  H        21.1475884895       -3.4115657579       10.1228796032
  H        19.9481928361       -3.4314436711       10.9819832111
  O        34.7117051580       -9.3568642719       10.3130036410
  H        35.5328422937       -9.4693757216        9.7700525544
  H        34.0824446500      -10.0292045776        9.8750068987
  O        21.0810922945      -11.5909136459        9.4456851602
  H        20.8115241659      -11.5393780274        8.4984691012
  H        20.2927538682      -11.5223840180       10.0545421829
  O        14.4210901737       -5.3868893256       12.4409861716
  H        15.3597981635       -5.4330762116       12.6428479840
  H        13.9899946275       -4.6080591483       12.9024308137
  O        21.8309016027        0.0615769876       13.6685894541
  H        21.9934515769       -0.2531338877       12.7529931824
  H        21.1207113141       -0.5550063803       13.9370435814
  O        24.2446200754        1.9447563171        8.1468859395
  H        23.6727248027        1.1931050234        7.8100045407
  H        24.7001450595        1.6073060311        8.9792204754
  O        23.5665507773       -7.7913683501       14.8639343631
  H        23.1087452394       -8.2793374006       14.1136646976
  H        23.9469443839       -8.5179371775       15.4426851843
  O        21.1627642443       -6.8498034156       18.3538760806
  H        21.6577453431       -7.3124420145       19.0404044497
  H        20.2365810345       -6.7987482559       18.6480472324
  O        12.9860491787       -7.0367735781       18.2771513975
  H        12.8712170738       -6.0089883857       18.2727695310
  H        13.2440253074       -7.2933065388       17.3443267585
  O        28.3407811550        0.8343041129       13.8861497042
  H        28.1914219095        1.8264497545       14.0662716365
  H        29.2697487444        0.8277019592       14.0654388000
  O        24.5014468654       -3.8504347261       17.4735894773
  H        23.9625976380       -3.5873827210       18.3152723754
  H        25.3950498875       -3.5666730787       17.6907003661
  O        30.5336133819       -7.2234920738        7.2612858392
  H        30.1709365029       -8.1643437701        7.1496502482
  H        31.3349437751       -7.2383660412        7.8281902446
  O        15.2531897328       -9.1531481745        1.1190230452
  H        15.8027609050       -8.6903038174        0.3957952811
  H        14.8149679952       -8.4530615570        1.7203382697
  O        19.4177865148       -9.0326836615        0.6038127980
  H        20.4115788833       -9.1380492359        0.6239941481
  H        19.3822287504       -8.1651374281        0.1616276950
  N        22.2862519271       -5.5919545735       16.0402222607
  H        21.7598315711       -4.9213837973       15.4932194922
  H        22.6486532632       -6.4183396982       15.4867907154
  H        21.7226093235       -6.0109038329       16.7714883648
  H        23.0386734721       -5.0624804792       16.4290678683
