     194
 CELL 12.4294 12.4294 12.4294 90.0 90.0 90.0 i =    54820, time =    27410.000, E =     -1097.1145902643
  O         3.6422391681        1.3264595802       11.4440231358
  H         3.3925753889        1.0950308484       10.5022604335
  H         4.6086094847        1.4421532125       11.4277542546
  O         8.9400679368       -9.3028350297        9.1517674297
  H         8.2346443922       -8.7220341124        8.7048543252
  H         8.5915226681      -10.2113942011        9.1555456382
  O         6.5984435882      -11.0452474987       11.2050773135
  H         7.2071617162      -10.2506393180       11.4274383476
  H         7.1979411657      -11.7750007979       11.2572691927
  O         1.2439604550       -2.1907662000       12.3994941444
  H         1.1404842101       -3.0997138634       12.7070011134
  H         0.3825449490       -1.6922169563       12.6457633852
  O        -4.8699809916       -8.8900802630       12.6558270827
  H        -4.6522783390       -9.1574044341       13.5808760704
  H        -3.9364686356       -8.6228365823       12.4303561725
  O         8.0554463697       -3.7364450338       20.1711826424
  H         7.8237075467       -4.2143705611       19.3246432741
  H         9.0415608530       -3.6474225449       20.3688495490
  O         5.5967114279        1.2059174906        1.4862355345
  H         5.5871705556        2.1288602229        1.7720262595
  H         6.1275445593        1.1211987317        0.6113703055
  O        10.1201665551        4.0438293056       11.3892596083
  H         9.5558482208        3.7816131194       10.6072546139
  H        10.4175054062        4.9751172770       11.1796114858
  O         2.9044137475       -4.3269604666        2.3207815710
  H         2.4325677403       -5.2350166058        2.3613446395
  H         3.1774815609       -4.0800520166        3.2094291691
  O         6.2883546843       -1.3507614691        7.7091543299
  H         5.5105716666       -1.6996601066        8.2941225257
  H         7.0081900860       -2.0967334843        7.9800047676
  O         7.5504642958       -7.7036936543        4.2008761068
  H         8.0785590140       -7.3104408785        3.4807349031
  H         8.0184026960       -8.4690295750        4.5403748243
  O         3.2006651874        2.9264494336        7.9504945259
  H         2.6832066695        3.2653186346        7.1770482907
  H         2.9070310397        1.9658627617        8.0533105230
  O        -0.8777487392       -0.3105371964       12.4061777461
  H        -1.5686948523       -0.3811234355       13.1717827914
  H        -0.7026593966        0.6807996075       12.4885556790
  O         6.5749173403       -5.6017048168        8.8282448595
  H         7.1691811412       -4.8123001532        8.6879058704
  H         6.5529201294       -5.8450499088        9.7796384536
  O         4.1080838221       -1.8226654634        9.3512067058
  H         3.3861364451       -2.4870506072        9.1733476632
  H         4.6537932281       -2.0636561529       10.1078505836
  O        10.0514362551       -1.4668388903       10.1692707942
  H        10.6351504639       -2.0113525490        9.6342287609
  H        10.6206905812       -0.9461696145       10.7784215309
  O         8.2815882316       -4.7620025690       11.4603689287
  H         7.7968074553       -5.5608258385       11.4102115527
  H         7.9607427023       -4.3521473567       12.3050698701
  O         8.7315389376        2.2042122356       14.8612728128
  H         9.6567976917        2.6535204997       14.9599076311
  H         8.2258346401        2.1561490315       15.7386931819
  O         8.0205874848        4.9819326602        7.3256053774
  H         7.8519041203        4.4990614076        6.4622610960
  H         7.4764890036        5.7734974812        7.2833957170
  O         1.8698825297       -9.0689963554       12.3772979653
  H         2.5041701745       -9.8020273547       12.0722408193
  H         0.9612134908       -9.5838527460       12.5897279418
  O         9.3359184812       -0.3011216512        1.6281101461
  H         9.0563202696       -0.7165809174        2.4622365979
  H         9.2190296757        0.6849455293        1.8732820621
  O         3.1187989996        6.2034839876       11.0494619118
  H         4.0897477074        5.8496710250       11.0118434772
  H         2.6029681823        5.5059473654       10.4613645287
  O        12.4403121303       -1.0857891039       18.9543199863
  H        12.3831169091       -1.5013300377       19.7996490038
  H        12.4864997883       -1.8196753906       18.3000395376
  O         0.8971996316       -2.0572099240        3.7801158890
  H         1.5574309484       -1.3447586734        3.6732736889
  H         1.4045696565       -2.9193971836        3.6884894505
  O         2.9309375611        0.1394056426        3.5374813462
  H         3.2266820040       -0.3134554319        4.2860695045
  H         3.3472019638        1.0483870476        3.7080923519
  O        11.0111181144       -5.5916865705       11.1685400139
  H        11.3240998879       -5.6269994842       10.1811393364
  H        10.2249548910       -5.0101718031       11.2134747915
  O        14.0732290338       -8.1628878780        9.8287106472
  H        13.9861698580       -8.5390992060       10.7416801998
  H        14.7304939225       -8.6859015578        9.3379066129
  O         9.9143222280       -3.7869509979       17.5016144933
  H         9.3292190783       -4.6266543001       17.5857969446
  H         9.2907390921       -3.0356237276       17.3596527599
  O         0.8327586692       -4.1437065318        6.3432742660
  H         0.9225176472       -4.7860893701        5.6316979522
  H         0.7745700296       -4.5953509924        7.2050485048
  O         5.4977999657       -8.6718566628       15.0640433497
  H         6.2414163361       -8.2990836286       15.6075455834
  H         4.8208043246       -8.0276511870       14.7913802850
  O         0.8226252131       -1.8988031178        9.6151959513
  H         0.9209819895       -2.6478158493        8.9967169040
  H         1.3432436700       -2.1618318704       10.3643244942
  O         6.1521309575       -0.7043717326       15.8365169319
  H         5.8392787686        0.0243017909       15.1928243519
  H         5.5539694940       -0.8876108862       16.6231030511
  O         4.7411560361       -5.7925876948        6.8911619188
  H         4.3786554917       -6.6049974363        6.4422257228
  H         5.3119888415       -5.9125396082        7.7081931133
  O         4.3991138603       -1.1968768607        5.5416454110
  H         3.9554254178       -2.0924185688        5.4950403173
  H         4.5815580470       -1.0508284712        6.5231487965
  O        17.9990880842        1.3886011127        6.5110702440
  H        18.3514366102        1.8123566251        7.3918862607
  H        18.2402357139        0.4194551852        6.6204059126
  O        12.2168300575        3.4010867259        5.5752202107
  H        11.7191582376        3.5080675265        6.4027984491
  H        12.8823920762        2.6741596232        5.7212052688
  O        11.2008531467       -5.0527846456       15.0370195392
  H        11.8831518247       -4.7769481552       14.3343686437
  H        10.6312935913       -4.3731405289       15.3623552652
  O        12.1177072335       -5.9828725505        8.5417856369
  H        11.5479178125       -6.7754092581        8.2814736885
  H        12.9101871453       -6.3870587692        8.8632845979
  O         7.1633039652       -4.9642143323       17.6471566526
  H         7.3135845106       -5.9125619734       17.3198081455
  H         6.2247981006       -4.9221520422       17.8348989020
  O        10.7287041321       -8.0618516488        7.6640124758
  H        10.4067220131       -8.6893479940        8.3951509853
  H         9.8775386837       -7.6532070164        7.4271711237
  O         0.4045072688       -4.8532505748        0.4949564680
  H         1.0010782895       -5.5787662978        0.6505970136
  H        -0.3498798897       -5.1753065732       -0.1330238156
  O         8.8693989176       -1.0725535925       16.6162553868
  H         9.2329505384       -0.7039072557       17.4535392495
  H         7.9004651030       -0.8063937919       16.5359681458
  O         7.1033177216       -3.1376689329       14.6580336475
  H         7.6410321512       -3.5568118297       15.3399783507
  H         6.7106438433       -2.3221879576       15.0618524542
  O         3.1056928798        4.7048441169        5.5241070709
  H         2.4831801708        5.2654497947        4.9852124941
  H         3.3648287499        3.9091368231        5.0443706934
  O         8.0050865640       -1.1263520658       11.8543405635
  H         8.3955274447       -0.8595576797       12.7648292095
  H         8.7681705757       -1.6106637504       11.3870943693
  O        14.0251375217        1.4496591832        6.1247284234
  H        14.6009131323        1.4448374563        5.3774272646
  H        13.5866140840        0.5963618161        6.3159037118
  O         9.8815719710        0.4675043155        6.2982845659
  H         9.4120339377        0.2167360181        7.1560223454
  H        10.8422957501        0.5480668153        6.5097124637
  O         8.4628169659        0.4374605582        8.9264829229
  H         7.6542668931       -0.0470892927        8.6382544633
  H         9.0216903229       -0.1719389571        9.4023286741
  O         4.1273338106        2.3354576716       16.8542070702
  H         4.6301209898        2.9281701461       16.2519405998
  H         4.6187681624        2.0735737187       17.5986069280
  O         2.7159100407        0.4104313559        9.0975588132
  H         3.3562760778       -0.3645611640        8.9702367250
  H         1.8448366081       -0.0370224777        9.1193408410
  O        15.8241691025       -3.8358665296        5.4456267105
  H        16.3317243165       -4.4988262838        5.9177446155
  H        14.9150934387       -3.9499042164        5.7794344982
  O         2.6184739873       -4.4839313397        9.1573038536
  H         2.9995793331       -4.9464128225        9.9397054787
  H         3.1965354117       -4.8586604103        8.4589384454
  O        -1.6999893828       -3.5047778485        7.9889185975
  H        -1.5693171611       -3.5408907061        7.0348626445
  H        -1.0704501314       -4.0866869604        8.4435820993
  O         5.7066665304        2.8450864294        8.5697169905
  H         4.6979834611        2.9347848316        8.4959024475
  H         5.9510974989        2.5695551445        9.4579306542
  O         7.9956641645        2.5946172929        5.3712796126
  H         7.1882460404        2.2410421341        5.7544351877
  H         8.6747614677        1.9397522502        5.7404325940
  O         5.9754196920       -6.6034737627       11.6513392090
  H         5.8165662526       -5.9789090084       12.3650216069
  H         6.1915778116       -7.4222989029       12.1181243084
  O         5.3084554115       -4.6717087105       13.5279702347
  H         6.0148360848       -4.1179881439       14.0512146131
  H         4.4382829252       -4.6500204696       14.0635351528
  O        -2.7345943188       -7.2059029464       14.3679992018
  H        -2.8129732775       -7.4412855774       13.4274928447
  H        -2.3701619563       -6.2939891051       14.4080078147
  O        11.8256508834        2.4275258764       12.8618222950
  H        11.0907056699        2.9277496940       12.4945674597
  H        11.6898091269        2.5467535078       13.8512845015
  O         5.4483269419       -2.3696638532       11.5989384036
  H         5.3174349919       -3.2058038934       12.1154435108
  H         6.3586014581       -2.0281656016       11.8891482391
  O        12.8700322572       -6.1016755155        4.3952223892
  H        12.5210952322       -6.8996829470        4.8288029810
  H        12.1186374024       -5.7908591073        3.7692527023
  O        -1.1316589798       -9.3737319167        2.9874192636
  H        -1.2190906695       -8.3916572606        2.7516389380
  H        -0.9765612420       -9.3715612700        3.9576185041
  O         3.3497234786       -7.2423255814        1.4829938869
  H         2.6568300984       -7.8452151045        1.1215396255
  H         3.6570799106       -6.8868482101        0.6451723615
  N         3.4601391747       -0.7471358323       13.2715445853
  H         3.2570614848        0.1473217314       12.8623301369
  H         4.3667586656       -1.0547138567       12.8578801065
  H         2.6890885813       -1.4067174418       13.0329156324
  H         3.5716478978       -0.5696108303       14.2469248049
