     194
 CELL 12.4294 12.4294 12.4294 90.0 90.0 90.0 i =    72420, time =    36210.000, E =     -1097.1651968557
  O        12.0226274045       -0.0713979108       11.6315932199
  H        12.4570261092       -0.8614409070       11.9833117159
  H        12.7902057685        0.4771953955       11.3529359016
  O        16.6073538313       -9.0065003024        9.6875479831
  H        16.2867351564       -8.0744363257        9.7822715406
  H        15.9855174634       -9.6896124027       10.0216171192
  O        14.4157843816      -10.7812534016       11.1667371757
  H        14.6058237296      -10.3313975135       12.0018427260
  H        15.1887222937      -11.4157930695       10.9913258818
  O         9.1772937415       -3.0495290781       14.0519837481
  H         8.9554212639       -4.0395669668       14.2800981150
  H         8.3781776822       -2.5155485004       14.3394048813
  O         3.6740012253      -10.1373871002       13.1873225996
  H         3.7648556203      -10.1621519604       14.1699869335
  H         4.5872713614      -10.0838889588       12.8946748009
  O        18.6375489031       -5.6979611625       23.0839774212
  H        19.0396891963       -6.2659298972       22.3306706889
  H        18.9235804725       -4.7725490513       22.8514836469
  O        13.3192375986       -0.0480311305        2.8328314058
  H        13.6831183168        0.8404398408        2.6454312622
  H        13.9786075395       -0.6584983182        2.4806423964
  O        18.7460604838        2.6782068522       11.2645778817
  H        18.0115420362        3.0415155965       10.7040451556
  H        18.9163691450        3.4973244499       11.8627316555
  O        10.9640987269       -7.1799628792        3.1608528391
  H        11.2553515995       -7.8721740926        2.5069393971
  H        10.7682077087       -7.5993066288        4.0392864168
  O        14.3983044852       -2.1439580175       10.0534124105
  H        13.6660271092       -2.6624834680       10.5711712460
  H        14.9552573397       -2.8490392473        9.6544981466
  O        15.2467450307       -7.6636732468        3.6892519336
  H        15.9414384885       -7.2630993269        3.0372299221
  H        15.6669110723       -8.1260976463        4.4342725509
  O         9.8779067420        0.5254276240        9.8129264856
  H         9.7358312947       -0.3434938676        9.4207657432
  H        10.7105364917        0.3571280778       10.2858835358
  O         6.7789255095       -1.2561917783       14.3747681246
  H         6.2553237552       -1.1103555596       15.2734586159
  H         7.0177429078       -0.4261963583       14.0510231343
  O        15.8141697320       -6.4925327700       10.4001308934
  H        16.6284969192       -5.9287994445       10.4667946086
  H        15.6181483866       -6.6806265769       11.3456074736
  O        12.5867011015       -2.6894078721       12.0462839967
  H        11.6260505762       -2.9000555174       11.8904693397
  H        12.9891717109       -3.2450641948       12.7912677933
  O        17.7813013535       -1.6637220961       12.1006304963
  H        18.2380458518       -2.1285674674       11.2931094548
  H        18.5186989228       -1.4788656278       12.7314163479
  O        16.4997338498       -4.4110796780       13.8575273605
  H        15.6225227169       -4.6282623454       13.4968113081
  H        16.8899660567       -3.6408726080       13.3756040725
  O        16.7927967348        1.7373969610       15.7889458357
  H        17.6789595227        2.2358911202       16.0177562195
  H        16.2060896780        1.8267292263       16.6446046554
  O        14.1218241592        4.1900691104        6.6483065259
  H        14.8478741054        3.5545457744        6.4563481878
  H        13.8112609271        3.9793792144        7.5650102347
  O        10.4083040368      -11.5213928068       13.5957755706
  H        11.0212119874      -11.8873492651       12.8886800802
  H         9.5123116686      -11.4196313865       13.2833721066
  O        17.3106473448       -1.0233496644        3.6692567654
  H        17.1222264058       -1.4870181105        4.5374743585
  H        17.1240967003       -0.0447136379        3.8028355193
  O        11.0728157912        4.4289804564       11.0370801544
  H        11.6740306110        4.1826380871       10.2948744275
  H        10.3648687683        3.7332992319       10.7864136821
  O        20.0133204755       -1.6688261944       19.9596848389
  H        20.8715441159       -1.6372114765       20.4773882754
  H        20.1373386436       -2.4777211229       19.4327801058
  O         8.6162148841       -3.8378568711        5.8740609948
  H         9.2530019184       -3.1539287909        5.6663938423
  H         9.1287459376       -4.2805101636        6.5585506741
  O        10.6332149691       -1.6543240874        5.5631393198
  H        10.9767072431       -1.3872745684        6.4185161496
  H        10.1858884056       -0.8853499632        5.1698540658
  O        19.2731792452       -7.3312453429       12.7131613315
  H        18.8862613373       -6.7935658020       12.0287449799
  H        18.6029137684       -7.3670988233       13.4823587014
  O        21.2129133361       -9.4121536472       10.1744626538
  H        20.3213057752       -9.7090987598       10.4698099624
  H        21.6305947881      -10.3222347012        9.8507882245
  O        16.3611711414       -3.7069223832       20.9846060108
  H        16.4100087969       -2.9654117406       20.3337359552
  H        16.3471422738       -4.5269380381       20.4399577004
  O         9.6741992239       -5.9963231154        7.7805204987
  H         8.8399228439       -6.4307720762        8.0164755531
  H        10.0876511966       -5.7188807741        8.5628222903
  O        13.6403201126       -9.8798030904       15.2057942752
  H        14.2754080291       -9.3068961539       15.5760960198
  H        13.1417964339       -9.3423306201       14.5553285155
  O         9.8813051092       -3.1442866864       11.2898284422
  H        10.1422617115       -4.1127501419       11.1722496607
  H         9.4079917748       -3.1147592211       12.1799295615
  O        13.9423447628       -0.2618039034       18.1390550132
  H        13.5173777070       -0.1659018619       17.2267794988
  H        13.1182247062       -0.5457066720       18.7360383839
  O        13.2621020469       -5.3622852229        9.1935816674
  H        13.2107336445       -5.3616229820        8.1889564809
  H        14.1782191545       -5.2121572385        9.4974134727
  O        12.6340552780       -2.0646119927        7.6857880540
  H        12.7801096391       -3.0178555996        7.3856772542
  H        13.3669339022       -1.9492051149        8.3343879895
  O        24.1175351704        1.2084410291        7.7471477177
  H        23.9790314238        1.7769702977        6.9331098383
  H        23.1758848342        1.0635480372        8.1444545437
  O        20.1698897419        2.7639619263        6.1922839771
  H        19.3988636277        3.0658168591        6.7212360544
  H        20.0850428395        1.7355083554        6.0240521049
  O        19.4677637369       -5.7813249527       16.5235772201
  H        20.1900721885       -5.8149337147       15.8426439352
  H        19.7055126657       -5.0788936890       17.1184809942
  O        19.8454262120       -7.3929622494        8.7708434892
  H        19.0644950590       -7.5846337923        8.1614752554
  H        20.4127345595       -8.1810043135        9.0679665969
  O        15.9186984228       -6.1632302110       19.1763414343
  H        15.0905655423       -6.6789661671       19.2466397204
  H        15.8877455411       -5.6116645163       18.3410741303
  O        17.8618730532       -8.5244161001        7.3005064857
  H        17.3881851599       -8.7425376640        8.1483174923
  H        17.2606972740       -7.8355510980        6.8407548586
  O         8.8099907620       -5.7590490777        2.0032842242
  H         9.5590399436       -6.2894781559        2.3970739485
  H         8.3950981385       -6.3351722147        1.3262412935
  O        16.1799315483       -1.9050101788       18.4258813794
  H        16.7122810859       -1.3618435228       19.0786137281
  H        15.2482597171       -1.4751443088       18.3759682046
  O        16.4413554525       -4.3295818164       16.9852690933
  H        16.7370523802       -4.0396470944       16.1287808273
  H        16.3463728262       -3.6113064788       17.6345071318
  O        11.8014124894        2.1343774142        5.0651449030
  H        12.5468714551        2.2840734636        4.4021231973
  H        11.3102844971        2.9131002707        5.2773901524
  O        15.3218188100       -1.7534705231       14.3392180731
  H        16.1525671890       -1.5693542038       14.8384693066
  H        15.5379962431       -1.5578553226       13.4159682938
  O        19.9017961872        0.2144441492        5.4159081614
  H        20.5633726393        0.1472185999        4.6639271717
  H        20.2128505411       -0.4268023144        6.0555462990
  O        17.1893164651       -0.0624736453        7.6909408645
  H        17.1873971906       -0.0712885121        8.6548255002
  H        18.0427530329        0.2315195415        7.4232755749
  O        16.2476722454       -0.2712442263       10.3302616803
  H        15.6373641008       -1.0165275079       10.2112193269
  H        16.8913694077       -0.6930593842       10.8617968530
  O         9.9494574218        0.5995956876       16.4586275034
  H        10.2092025412        0.7368098655       15.4857394403
  H        10.7224367340        1.1060479838       16.9313984943
  O         9.7986205278       -2.0264265532        8.9878330889
  H        10.6370315036       -2.1786883122        8.5446243337
  H         9.8503381521       -2.4735344453        9.8800637149
  O        24.8723532904       -5.0545909064        6.5090563100
  H        25.2121398928       -5.2150182000        5.6048512613
  H        23.9138229921       -5.1654615697        6.4139797248
  O        10.7971910372       -5.2847909461       10.3132265880
  H        10.6853746292       -6.2025324395       10.7203212121
  H        11.8058760809       -5.2297226507       10.0651666563
  O         6.3364084132       -3.0288709838        9.9878470845
  H         5.5469116950       -3.0826806502        9.3415305039
  H         7.0730509393       -2.6665928683        9.4241419487
  O        12.8920311355        3.1234054726        9.1416102130
  H        12.4800802558        2.3390475352        8.6409591966
  H        13.5038266261        2.7395730872        9.7879905803
  O        15.7181108573        1.9679405873        5.8835820268
  H        14.9896953477        1.2938206458        5.8378743247
  H        16.3558618099        1.5803433394        6.5826075090
  O        15.0396588343       -7.4519027063       13.1790321350
  H        14.0886646271       -7.7277764056       13.3131945299
  H        15.3949888241       -8.3698948065       12.9699700061
  O        13.2838609202       -5.7779228434       16.2190437851
  H        14.0825670302       -6.4039943911       16.4820526545
  H        12.5971921424       -6.3313214771       15.8735743996
  O         5.0693850740       -6.7813223014       14.9208844542
  H         4.8177456436       -5.9684399439       14.3746967565
  H         5.5503634101       -6.3095475752       15.6842615338
  O        19.9599843822        1.2412553873       13.5131616642
  H        19.7046738336        1.5722330700       12.6322125064
  H        19.6512271274        1.8990874310       14.2015661373
  O        13.5999241723       -3.8877608608       14.5227419626
  H        13.6895858597       -4.6740995015       15.1252994601
  H        14.4065739969       -3.3429345229       14.7102983639
  O        22.5498729881       -8.2583129890        5.6343176321
  H        21.5948560363       -8.6195921666        5.6490306877
  H        22.5914240416       -7.5369374994        6.3194747399
  O         6.8535621180       -9.5689706622        3.5277511124
  H         6.8559418678       -8.6729292778        3.1669565791
  H         7.0933248542       -9.4566402013        4.5006283397
  O        11.6298499281       -8.9152620259        1.1116756501
  H        11.2774753472       -9.8450687542        1.0381317401
  H        11.4266255352       -8.5740283765        0.1923229053
  N        11.4967788507       -2.1234860562       15.2650297506
  H        11.7322581633       -1.1677001654       14.9222212784
  H        12.2817473595       -2.7250542629       14.9662402931
  H        10.5050144400       -2.4436040431       14.9485277735
  H        11.5302825487       -2.0229737217       16.3500090402
