     194
 CELL 12.4294 12.4294 12.4294 90.0 90.0 90.0 i =    30020, time =    15010.000, E =     -1097.1544072758
  O        -7.8544778596        4.6267729882        7.4607525552
  H        -7.9521196288        3.6869474382        7.1060878883
  H        -7.1950229813        4.9319584750        6.7534067977
  O         0.6697335912       -9.0243048720        4.2215122211
  H         1.1215288801       -8.2149623955        4.5823128543
  H         1.0526354453       -9.6957208907        4.8751295856
  O        -3.3666789058       -6.8441895219        7.4997080003
  H        -3.9032982410       -6.0178664289        7.7383658257
  H        -2.6041645830       -6.5677918378        6.9406132003
  O        -8.3823278875       -0.2476640457        7.8566947537
  H        -9.0187591143       -0.9716569426        7.6805093459
  H        -8.4053297895       -0.0710783648        8.8355808555
  O       -17.9739288571       -4.9983291398        7.4257159917
  H       -18.6072692929       -4.7572741010        8.1779084758
  H       -17.5268355342       -4.1214761653        7.1952097257
  O        -2.9719437834       -2.2560183024       13.8364035164
  H        -2.3453528242       -1.5775856233       14.1859320854
  H        -2.4361766229       -2.6506521331       13.1068592687
  O        -4.3324376945        5.1185442007       -2.2288684428
  H        -3.6340990401        4.6473824619       -1.6473188741
  H        -3.7829385816        5.3663608270       -3.0066048439
  O        -1.5294907041        4.1243532673        5.4414481400
  H        -1.6244058072        3.3569870404        6.0743629542
  H        -0.6659960410        3.9007624922        5.0288194323
  O        -9.5604125504       -3.9961210947       -0.3829823971
  H        -9.7748047346       -4.8980775835       -0.6792389068
  H        -9.8660085573       -4.0105921829        0.6078076486
  O        -3.3177500460        1.8509060797        1.2120277056
  H        -4.1393151304        1.4241054390        1.5154260816
  H        -2.6771003603        1.2501961653        1.6633871370
  O        -1.7646501024       -3.7835848452       -0.9755797279
  H        -0.9667652645       -3.3694958586       -1.3822345659
  H        -1.3584808586       -4.3316272968       -0.2487210700
  O        -7.9573789484        5.4923731671        3.5603018735
  H        -7.3625670718        5.5574181391        2.7853441563
  H        -7.9201606061        4.5379955022        3.7466037595
  O       -10.9743811742        3.5676172055        8.3453061027
  H       -11.7745089943        3.2238864619        8.9657684770
  H       -10.3275073481        3.6079358234        9.0392006730
  O        -2.8380680592       -3.8273828118        4.1501410766
  H        -2.7876205048       -3.2741418454        3.3742893470
  H        -3.4816329797       -3.2987736951        4.7902863281
  O        -5.1316651209       -0.2019861679        3.0662310661
  H        -5.6449403719       -0.9402637663        3.3843827465
  H        -4.4209904760       -0.0623987556        3.7838265547
  O         1.1557367251        1.6240459091        6.3658498122
  H         1.4909214984        0.7068823623        6.3934795861
  H         1.6575013108        2.1102026683        7.0362352646
  O        -1.5269262628       -0.2820342370        2.5970525298
  H        -0.9835595095       -0.7262406131        3.2890325525
  H        -0.8321055309        0.0916494723        2.0354387426
  O        -0.5662170200        6.9426797326        9.5715068242
  H        -1.1000107804        6.3524127519        9.0006122339
  H        -1.2759074490        7.3147919209       10.1805733189
  O        -3.7559497709        6.4631956180        2.0965936845
  H        -3.4228165969        5.5953761018        2.5314772095
  H        -3.7579659358        7.1836321511        2.8079205768
  O        -8.4683365977       -7.6883665877       10.1649308046
  H        -7.7657860453       -7.1097314071       10.6186590532
  H        -8.0330501686       -7.8324628181        9.3177424826
  O        -0.6096647271        2.4075644704       -2.7470867537
  H        -0.3521983638        1.5439528240       -2.3661906925
  H        -1.3052627218        2.8472351104       -2.0822536304
  O        -7.3799514501        7.4423171517        5.4545880247
  H        -6.5272354173        7.3930621989        6.0322980630
  H        -7.3251982682        6.6011093928        4.9246393005
  O         0.9417506048       -0.0347128944       10.7720272530
  H         0.8857754416       -1.0071095205       10.8574669291
  H         1.9216347983        0.0352688652       10.6635289223
  O        -7.8427656850       -2.1040294805       -1.1182248882
  H        -7.3018783821       -1.6505304722       -0.4053651508
  H        -8.4112144317       -2.7184319608       -0.6629326932
  O        -7.4873250837        3.1393248122        1.3714045014
  H        -7.5545829733        2.6190140884        2.2135556571
  H        -6.7258604035        3.8106623995        1.3953054901
  O         0.0260568778       -1.6728038381        4.5131411365
  H         0.0443467435       -2.5801014059        4.1359167904
  H         0.9711028298       -1.4382169269        4.6814437600
  O         1.8093562704       -6.5326218642        4.0761377430
  H         1.9890879501       -6.3845483653        5.0235465103
  H         2.7458193411       -6.4293178659        3.6809461573
  O        -1.3982597722       -0.5739063216        9.2427658061
  H        -2.0625761106       -0.2790239529        9.8853766286
  H        -0.5138823955       -0.4259515126        9.6951912073
  O        -9.9739259160       -3.0010815215        2.2227554815
  H       -10.6060785782       -3.3860977183        2.9031554751
  H        -9.0803862598       -3.0554940120        2.5670487047
  O        -7.3745386398       -3.9420441632        9.1342847479
  H        -7.3946403737       -3.1680108800        9.7450989400
  H        -8.2457579423       -4.2551371336        8.7753242507
  O        -9.5166329617       -1.1680898231        5.0276199152
  H        -9.2721772612       -0.9643911118        4.0962344833
  H        -8.9099417570       -1.9269307126        5.1121849621
  O        -5.3403144006        2.6764173930        9.5858851719
  H        -5.0270681263        3.5944010438        9.6948606195
  H        -6.0962935588        2.5504021257       10.2268719195
  O        -5.6234663974       -3.2102703525        1.1896165018
  H        -6.0641742771       -3.8022192297        0.5475769273
  H        -4.6532113457       -3.2970853986        1.1626279074
  O        -7.6948209645        1.3961584321        3.5327036171
  H        -8.4141210303        0.8477993834        3.0538247751
  H        -6.8816816968        0.8362576679        3.5042814569
  O         5.3893898225       -0.2822297824        0.7813457098
  H         4.5536294642       -0.2609939632        1.2322953988
  H         6.1143290607       -0.2140305812        1.4155454004
  O         4.8252258536        2.3156476934       -1.2516023497
  H         5.2189749389        2.2690453096       -0.3399672081
  H         4.3423704364        3.1759647386       -1.3595967940
  O         0.6924305831       -2.6970168313       10.5218228542
  H         1.0118517347       -2.6610809364        9.5317325143
  H         1.2802306865       -3.2087747819       11.1223590850
  O         0.3889769203       -4.2267668534        3.2748215423
  H        -0.1598087579       -4.3885970947        2.5129549192
  H         0.6125164818       -5.0981510696        3.6113099673
  O        -3.9781195799       -2.1234650875       10.9829719615
  H        -3.2949265526       -2.8268409215       10.8319988961
  H        -4.2995225440       -2.2810996172       11.8585813911
  O        -0.0518783857       -7.5545286476        0.3248453429
  H         0.4507300791       -8.2315507118        0.9108538331
  H         0.6599807159       -7.1008696357       -0.1596671774
  O       -10.7117106223       -2.4983629214       -4.4733087502
  H       -10.2093608271       -3.1935867740       -5.0029104183
  H       -11.5189608228       -2.3003126339       -4.9607889454
  O        -2.2745363089        3.7211330035       11.4712632247
  H        -1.5762907720        4.1902627290       11.9791013466
  H        -2.7271115352        3.1742331463       12.1835762105
  O        -4.2383989010        0.1164077989        9.4351761920
  H        -4.4215188422       -0.7035667412        9.9834395585
  H        -4.3757955578        0.9162750738       10.0449039376
  O        -5.9875265160        5.4539407953        1.4498403513
  H        -6.2954339704        5.8856993554        0.6038648933
  H        -5.0847831375        5.7909878319        1.6932699148
  O        -1.5880663865        1.5368695605        6.8861996594
  H        -1.8367043410        1.3284958481        7.8274252726
  H        -0.6177021003        1.5457231082        6.9215494126
  O         1.4126717399        3.1882595540        1.6988449350
  H         2.3904106495        3.3698166227        1.6380025258
  H         1.3025856588        3.2192767641        2.6859651964
  O         0.3400904952        0.8105575152        0.8294302095
  H         0.7635806726        1.6749578863        1.0441426712
  H         0.5757722778        0.6513569054       -0.1652768134
  O        -3.3512000268        3.9535191559        3.2685165231
  H        -3.3332897108        3.1402236231        2.6856459875
  H        -2.7241001666        3.8465499673        4.0552056493
  O        -6.5517359652        6.6804156627       11.4326420576
  H        -7.0612433580        7.3745534190       10.9030905962
  H        -5.8555057600        6.4997922076       10.8107615982
  O        -8.1921366619        1.9355340074        6.4271821414
  H        -8.1782632048        1.7822411236        5.4587896930
  H        -8.3790325977        1.0598067802        6.8481031968
  O         3.6072251819        0.1558059890       -1.9758154493
  H         3.9007897769       -0.6585402043       -1.5795624242
  H         4.0704758181        0.8908366476       -1.5820601976
  O        -7.4525766396       -3.0300825460        3.5653927162
  H        -7.3343349788       -3.6943147914        4.2986158416
  H        -6.7368868527       -3.2590874236        2.9365644468
  O        -9.6765617938       -0.2470752225        2.3156372776
  H        -9.8151886142       -1.2545763457        2.3348418104
  H       -10.3767711102        0.1592717688        1.7375573468
  O        -5.4675496341        4.6061876874        5.2427219681
  H        -4.9108482852        5.3542087547        5.6158511901
  H        -4.7920511286        4.3089702853        4.5327498321
  O        -1.0561813925        7.1097750766        1.2023015140
  H        -0.6958134684        6.1824073076        0.8852878749
  H        -1.9694855801        6.9125501674        1.4995607677
  O        -4.2465874248       -2.7192383402        6.2686881767
  H        -4.8768093497       -1.9559469246        6.5065148007
  H        -3.3708513528       -2.4967476783        6.6780221001
  O        -5.7802501887       -0.6840268903        7.1153760386
  H        -5.4039870924       -0.5205275239        7.9640366551
  H        -6.7597096591       -0.6098694621        7.2529119688
  O       -14.0532721319       -2.1859219792        7.0559915899
  H       -13.7491888627       -1.6821561211        6.2616407674
  H       -13.9099660177       -1.5875006650        7.8470353697
  O         1.2814024509        5.8244615740        6.7245336663
  H         1.3040944397        4.9957853941        7.3069753868
  H         0.3638490382        6.1001426108        6.5196713066
  O        -3.5776917141        0.2900725423        5.4246218561
  H        -4.0769351598       -0.0529049647        6.1903116712
  H        -2.7566712138        0.5883217500        5.9163632338
  O         1.8152476483       -6.4004827996       -1.3435639304
  H         2.6002780178       -6.9068980367       -1.7214895772
  H         1.1808541272       -6.3119241673       -2.0550758243
  O       -13.5249105525       -4.9028967093       -6.0686544027
  H       -14.0406720943       -4.5927559798       -6.8691768714
  H       -13.4595105540       -4.0394390687       -5.6429400866
  O        -9.2659755447       -4.7267239345       -5.0922214798
  H        -9.9229730434       -5.4841400166       -5.1604345174
  H        -8.6124961870       -4.8713149765       -5.8447720558
  N        -5.3331219327        2.2734059342        6.8048555257
  H        -5.2273297025        3.3032364743        6.6135418153
  H        -4.7413325715        1.6814892369        6.2353397728
  H        -6.3459694887        2.1163836266        6.6744153153
  H        -5.0817259731        2.0487388296        7.7548282478
