     194
 CELL 12.4294 12.4294 12.4294 90.0 90.0 90.0 i =    86420, time =    43210.000, E =     -1097.1107398969
  O        18.0527754803        0.7660198919       12.8444399246
  H        18.4080217371       -0.1122952772       12.6776427592
  H        18.8256704293        1.3818586756       12.8709924514
  O        22.8864841500      -10.4846660568        9.2070275697
  H        22.0929598468      -10.7005286016        9.7843704023
  H        23.3882950346      -11.3444940498        9.1273976601
  O        20.5180692071      -13.2238347176       12.7786474199
  H        20.7112160758      -12.8077164068       13.5853468388
  H        20.9871660672      -14.1157913317       12.8972032492
  O        15.2603696420       -3.3318634455       13.5945370074
  H        15.0757108592       -4.0634642066       14.2135042430
  H        14.4745406424       -2.7237845212       13.6005388117
  O         9.3770097494       -9.0665705124       14.4999918897
  H         9.2733655392       -9.6209027251       15.3374849681
  H         9.8273423760       -9.6740177231       13.8281427540
  O        26.5936532633       -6.8578685918       24.6294594626
  H        27.3050651820       -6.1731979063       24.4464887241
  H        26.3472450839       -7.2848848923       23.8089041834
  O        20.1203802841       -0.0451989749        3.1218766328
  H        19.5415216125        0.7342296301        3.3478597812
  H        20.9964092336        0.2935255266        3.3971130057
  O        23.4778709791        2.5189704400       12.5260273840
  H        23.4647250053        2.1983092660       11.6031210574
  H        23.7490660107        3.4418995652       12.2934550479
  O        16.6947431256       -7.3365573487        3.5850862653
  H        16.7395779215       -7.7342758750        2.7197994215
  H        15.9812463065       -7.7675174173        4.1145552013
  O        19.7052881315       -3.1396084847       10.0074043795
  H        19.9411391111       -3.8371878472       10.6220501949
  H        20.4597082224       -2.5202922748        9.8522546542
  O        20.3729841725       -8.0256391473        5.2174579118
  H        21.1176024713       -7.5267887058        4.8069454205
  H        20.5915788287       -8.9316708452        5.5180019792
  O        16.0285224403        0.4863585254       10.1897977535
  H        15.7766947005       -0.3281087080        9.6504414952
  H        16.7918229101        0.2082962670       10.6975613495
  O        13.0154865567       -1.6665624910       13.9167893652
  H        12.5755385670       -1.6079734017       14.8242387003
  H        13.2477199108       -0.7380638571       13.6539958069
  O        23.4752823986       -7.3350160039       11.3034059739
  H        24.0089405009       -6.6649786563       10.8425564449
  H        22.6754965283       -6.8633575345       11.5176624383
  O        17.6824296713       -2.2952952130       12.0434708195
  H        18.4256879309       -2.5223444957       11.3473797035
  H        16.8753696941       -2.4845249505       11.5279826461
  O        24.7355001388       -2.5144939560       11.3941109071
  H        25.6659682861       -2.3463723177       11.0840720811
  H        24.7392684366       -2.2254325271       12.3775440656
  O        24.6089904291       -5.2624054662       13.5145312549
  H        25.4045787137       -5.6655191952       13.0034149820
  H        25.1683632431       -4.6774542174       14.0770485546
  O        22.1833023855        1.8064412380       16.6342665421
  H        21.5472668693        1.7317096124       17.3891441540
  H        23.0684971131        2.1327791613       17.0578021464
  O        20.5198087746        5.3342843578        9.7788650130
  H        19.6316659060        4.9092618578        9.7528522599
  H        21.2192756792        4.6693335445        9.9582759261
  O        16.1108723661      -10.8548493834       14.8731512782
  H        16.6906259516      -11.2941701954       14.2028353907
  H        15.4135991804      -10.3516487551       14.4311254354
  O        24.1547658133       -1.9698583671        4.1422625106
  H        23.1952618952       -1.8447554598        4.4513350692
  H        24.5876545033       -1.2194971107        4.6452265640
  O        19.8630033998        3.3438362661       12.4324807304
  H        20.2985717215        3.4705606142       13.2859028879
  H        20.4322531945        2.7259076505       11.9210045056
  O        26.1257115435       -1.6723924058       20.2112785442
  H        26.8790576879       -1.8779278271       20.8337668433
  H        25.8377314838       -2.5429321153       19.8062817674
  O        16.3964112589       -2.7240681002        4.7657711812
  H        16.1141549479       -1.7767160952        4.6673370315
  H        15.7382224020       -3.3729779236        4.4699072524
  O        18.8902241524       -2.2663386731        5.7938075904
  H        18.7764374138       -2.7511659411        6.6968187075
  H        17.9461745517       -2.4937293742        5.5587455305
  O        24.2070641116       -7.7182926770       14.9647722865
  H        24.2492057281       -6.8755257675       14.3874267820
  H        23.5015592642       -8.2155515833       14.5303623189
  O        28.1723586293       -9.1755721707       11.3615279901
  H        28.7120667119       -8.5963772372       11.9300496333
  H        28.2074774084      -10.0260154501       11.7967503047
  O        24.7401309010       -4.0935331769       20.0633172011
  H        25.0518725826       -4.6407112315       19.2890923569
  H        23.7803124836       -3.7809124611       19.8191946873
  O        14.7173751312       -6.8628970123        7.1143405962
  H        14.4104376473       -7.2379981086        7.9678257251
  H        15.5709916414       -6.4530696933        7.3446365706
  O        18.5385632772      -10.1434165945       16.1994616441
  H        18.9879216227       -9.3002695425       16.1632627010
  H        17.8644439379      -10.1620714920       15.4686169496
  O        15.5358334578       -4.2996067260       11.2410995727
  H        14.6830532435       -4.5971345376       10.9108343503
  H        15.3248826465       -4.0223986096       12.1516763707
  O        19.2518733182        0.1443980894       19.6553465962
  H        19.0456266405       -0.6843689396       19.0664357536
  H        18.4942197589        0.3362048305       20.2486680239
  O        20.3531614613       -5.0642222120       11.8702223170
  H        20.2536422244       -5.8090837789       11.2699871188
  H        20.0892286065       -5.4989639790       12.7495704488
  O        17.8541033697       -3.1717441793        8.0937414635
  H        17.8063428136       -4.1892960985        8.0192816291
  H        18.5385170325       -3.1440871391        8.7850138043
  O        30.0830597436        1.8724417960        8.4621814366
  H        29.7732110921        1.9044097895        7.4978754646
  H        29.3373016105        1.5641052208        9.0102557552
  O        24.5073469927        2.4707142417        5.2809387806
  H        24.4001392250        2.9531749622        6.1546713408
  H        25.1558727600        1.7667439531        5.4662046656
  O        25.3247516934       -4.5070554084       17.0026700585
  H        24.8071630074       -5.3547989455       16.8758678090
  H        24.6696006671       -3.7419785469       16.8248103818
  O        26.1315756523       -8.0263509337        9.6987161348
  H        25.3516723432       -8.3663546210        9.2018832058
  H        26.7963468643       -8.7373433012        9.8758150097
  O        21.8495007303       -6.2064641233       19.8248994095
  H        21.1711855705       -6.5721435589       20.4055892029
  H        21.7307144609       -6.4451009558       18.9099835979
  O        23.9462668620       -8.3976081451        7.6266985751
  H        23.4268889624       -9.0497293686        8.1733073951
  H        23.3292932760       -7.6073132897        7.5550320707
  O        15.0932658805       -4.9568553110        3.0550060001
  H        15.4582403214       -5.7632177898        3.4603132940
  H        14.2674072646       -4.8249671925        3.6276890618
  O        21.5720333966       -1.6041849163       21.2409231474
  H        22.4808727142       -1.1886852385       21.4075768062
  H        21.0940901487       -1.0419343597       20.6128381262
  O        22.1055805800       -3.4396328807       19.4400720038
  H        21.7453676256       -4.2994944012       19.7237730498
  H        21.8053624702       -2.8429885966       20.2096712201
  O        16.8355882589        2.3154744481        5.9704534207
  H        17.4488159816        2.4083925084        5.1993542475
  H        16.0025670146        2.8004828912        5.7157271000
  O        21.4492428336       -2.1749111419       17.0483323235
  H        21.5281812132       -2.4713774361       17.9946729674
  H        20.7452867411       -1.5117061633       17.0623326491
  O        25.7950591076       -0.1614066751        5.5217025736
  H        26.7834649038       -0.1645966481        5.2051694923
  H        25.8125347601       -0.6484784302        6.3842380918
  O        23.8198709373       -0.7225750369        9.4250275202
  H        24.1368270258       -1.3231440739       10.1981083270
  H        24.5072218258       -0.8713458230        8.7674634226
  O        21.8671074120       -3.2970273315       13.0944045516
  H        21.5080556035       -4.1362583649       12.6824382619
  H        22.8238906185       -3.5280542183       13.1361524212
  O        15.9493612293       -0.0223631313       16.9635421563
  H        15.9332996735        0.5507557883       16.1327949853
  H        16.4576838538        0.5400896549       17.6241795820
  O        15.6686537017       -2.1551965122        9.3886719719
  H        16.3711896729       -2.4479183142        8.7801483604
  H        15.5376454930       -2.9556346720        9.9762146219
  O        30.3170328023       -6.0122601693        7.8127098275
  H        30.5516733149       -6.0509511727        6.8709792449
  H        30.7728139713       -6.7503541890        8.3156488211
  O        17.9860906688       -7.9714264184        9.5757008085
  H        18.0063053537       -8.8753161834        9.1574228859
  H        17.1798724575       -8.0064015477       10.1281489764
  O        12.6447235266       -5.2103861431        9.9314468325
  H        12.4648484634       -4.8752320417        9.0036631935
  H        12.1397312877       -4.5719468865       10.4905276337
  O        20.4076724852        1.0676190569       10.5103065623
  H        19.4385934045        1.0914825080       10.2663738588
  H        20.6135793227        0.3047402843       11.1271225892
  O        20.9847224653        1.9078444722        6.5147031544
  H        20.4290369652        1.2141923301        6.9596968054
  H        21.7259961951        2.1075479765        7.1278573042
  O        19.9794144268       -6.3986771259       14.1746254647
  H        20.1570266558       -5.8068776985       14.9911989377
  H        20.7093686112       -7.0510558444       14.0707902413
  O        18.5010202793       -5.9976881458       17.7105331527
  H        19.0914032806       -6.7991000814       17.6974875881
  H        17.8345996945       -6.2167571139       17.0295075778
  O        10.1138147608       -6.3026769818       16.7851606008
  H         9.9186749091       -5.4484064845       16.3303548026
  H        10.6545765540       -6.8278615217       16.1393895475
  O        26.3936941955        0.5845343770       12.8521587008
  H        26.0327418568        1.5167477880       13.1024576575
  H        26.5172288341        0.6136551758       11.8692243297
  O        19.9705779072       -4.2173057736       16.0205841390
  H        19.2623982276       -4.5253344868       16.6428882296
  H        20.6431114517       -3.5964441896       16.4236505991
  O        27.1949514761       -8.5274105358        5.2108263291
  H        26.1821021889       -8.5763283698        5.0527891188
  H        27.2574702380       -7.8551745117        5.9478129310
  O        13.8566383700       -9.2724886403        1.4345758773
  H        14.0277833564       -8.4697978191        0.8904116842
  H        13.1287083970       -8.9600480422        2.0997936694
  O        17.6168442260       -7.7188365651        0.2754780823
  H        18.3152286699       -8.3529398885        0.0599759948
  H        17.9621121467       -6.9048709496       -0.1624932832
  N        18.1213149101       -2.6376839811       14.7960051530
  H        17.5473044891       -2.5382316153       15.6520021813
  H        17.5910487578       -2.9705398305       13.9775041521
  H        18.9438974641       -3.3394829805       15.0733068430
  H        18.5792145292       -1.6937234382       14.5000276659
