     194
 CELL 12.4294 12.4294 12.4294 90.0 90.0 90.0 i =    76420, time =    38210.000, E =     -1097.1588696441
  O        13.8838272411        0.3249017227       12.0668300774
  H        14.3041664574       -0.6336304889       12.1954717934
  H        14.6057064149        0.9637613057       11.8821490184
  O        18.4264435740      -10.4721498718        8.7842168095
  H        17.7281695821      -10.7289871223        9.4571208369
  H        18.9350862029      -11.3588256301        8.5724047355
  O        16.6744441557      -10.9176416406       11.2782644240
  H        17.2115953421      -10.3091259793       11.8180560984
  H        17.0409219986      -11.7699263881       11.4912862578
  O        10.9939211508       -2.8380556185       13.9462849941
  H        10.6923247276       -3.5861854503       14.4213594729
  H        10.4711203966       -2.0554557701       14.2306413195
  O         5.3093886852       -9.4166706956       13.3948141193
  H         5.0965259624       -9.9995906642       14.1815722362
  H         6.2776095429       -9.0998097670       13.5024201699
  O        21.4767786061       -5.7295672312       23.2104037641
  H        21.9234436628       -6.2385206241       22.4970797859
  H        21.4453976537       -4.7664106340       22.8368817834
  O        15.3709781933       -0.1013714817        3.5124839328
  H        15.0990036358        0.8091495320        3.4696576705
  H        16.2050705611        0.0164807340        3.0246163791
  O        20.4496214372        2.6681354796       10.8489966466
  H        20.0476087207        2.4678635146       10.0051011672
  H        19.7052064409        3.1496182466       11.3791506691
  O        12.0648999695       -6.9494631876        3.5222539368
  H        12.0963535370       -7.6799088340        2.8313123353
  H        11.5793073664       -7.3004391192        4.3161021415
  O        16.6372655012       -2.8552689423        9.7565260380
  H        16.0690598480       -3.6057727629       10.0740197438
  H        17.5562004031       -3.2365983420        9.5415666461
  O        16.8893042417       -7.9532888610        4.2423694397
  H        17.4003346457       -7.1553795013        3.9577996903
  H        17.2408368442       -8.2090656484        5.1511649227
  O        12.3246061052        0.4746831645        9.7868008537
  H        11.9829159624       -0.4816332052        9.6295604857
  H        12.8456189292        0.3872314874       10.6119717841
  O         8.9516054462       -1.0560805765       14.1333147341
  H         8.4521765146       -1.3905430629       14.9041843871
  H         8.6642867595       -0.1247015246       14.0072920458
  O        18.9460104444       -7.2768392446       11.3842820054
  H        19.7960542011       -6.9522493354       10.9996613753
  H        18.5893489181       -6.4961674672       11.8203470261
  O        14.7444238056       -2.3106470042       12.4013512002
  H        13.9410182548       -2.9038946077       12.3558784495
  H        15.3902535422       -2.6167733462       13.0362952129
  O        20.0718915958       -2.4648709255       12.0319699461
  H        20.6647300432       -2.8468172514       11.2882007808
  H        20.7267985840       -2.1043916400       12.6651721104
  O        19.0515288668       -5.0033476137       13.0005101655
  H        18.2753047950       -4.9298647746       13.5709804658
  H        19.2987252565       -4.0759534004       12.7083886564
  O        17.9432854682        1.3248980030       15.7959865187
  H        17.9680398239        1.8097987557       16.6378574538
  H        18.8263844846        0.9585269028       15.6726616676
  O        17.1600423034        4.9312344240        9.3678034139
  H        16.3921616172        4.2865215191        9.3949333277
  H        17.8198002523        4.8906718552       10.0697805264
  O        11.7055769862      -11.2356192250       13.6547491359
  H        12.2259684410      -11.7914936904       13.0018102700
  H        10.8157729448      -11.0953686564       13.2469396053
  O        20.3401150343       -1.5685194329        4.1910749176
  H        19.5496706060       -1.4709876002        4.8309025031
  H        20.8328969911       -0.7194284055        4.5609615031
  O        12.7740128836        4.0926870517       11.1641160042
  H        13.5486341219        3.7490872404       10.5871624239
  H        12.0513326625        3.4772235649       10.9908884713
  O        22.5632614308       -0.3332463642       20.0248484261
  H        23.3245412954        0.1349798757       20.4120490589
  H        22.6451224855       -1.3336220237       20.0210489527
  O        10.3685346472       -2.8431583880        7.1308505297
  H        10.8870525652       -2.5871339535        6.3071191877
  H        10.8402366154       -3.6265059175        7.4164078992
  O        12.1528260588       -1.8940449586        5.0805770996
  H        12.6303451330       -1.6038200131        5.8622475234
  H        11.7547284153       -1.1042489643        4.5465483632
  O        21.2424672138       -6.3394004309       13.5579635947
  H        21.7177305894       -6.2737532344       12.7297784106
  H        20.3911649620       -5.8343717560       13.3448493397
  O        23.1546647762       -9.8322659507       10.4504704645
  H        22.2106816391       -9.9881366586       10.6992443387
  H        23.5568730936      -10.7064052607       10.1568409796
  O        20.2427603491       -3.7446203003       19.9976141276
  H        20.9708931779       -3.7498537828       19.4035275024
  H        19.5252020679       -4.5404807056       19.8606723008
  O        11.8369359932       -5.1653189435        7.8933134639
  H        11.3264306258       -5.9897772022        7.9081717504
  H        12.5046135306       -5.2156300146        8.6467682319
  O        14.7763493239       -9.5715381848       15.8213186176
  H        15.5774541573       -9.0352539132       16.0473185807
  H        14.5001001320       -9.2240349243       14.9544380146
  O        12.4503643911       -3.5356959226       11.6449877203
  H        12.5954668856       -4.4508715457       11.3204222065
  H        11.8796242132       -3.5138244106       12.4602808297
  O        16.0057282039       -0.1161390847       18.7647452481
  H        15.5788571556       -0.1458111465       17.9200168110
  H        15.2575356066        0.1384016129       19.3181415325
  O        15.9821111286       -5.5590944693       10.9563196911
  H        16.3678987456       -6.2195285092       10.3270953936
  H        16.3251922933       -5.9231871753       11.8096962964
  O        14.1820171199       -2.5671492667        7.8039973767
  H        14.2744736763       -3.2291643961        7.1325019907
  H        15.0659409216       -2.3158688676        8.1442589208
  O        26.5078272021        1.6600082916        7.7146037760
  H        26.1027793245        1.9315501062        6.8422153822
  H        25.8004332355        1.3318061392        8.2916540832
  O        20.5166035997        3.0218535799        4.9108540750
  H        19.9145154248        3.2598086656        5.6659885853
  H        20.8090753593        2.0962222430        5.1107915149
  O        20.3634930537       -4.4098082787       17.0182860161
  H        21.2299999540       -4.5629774014       16.6076057231
  H        20.4047191849       -3.4541075905       17.3110786343
  O        22.4177490219       -7.6424730584        8.6764294176
  H        21.4896192823       -7.8339992762        8.3643685678
  H        22.7072008874       -8.4830877330        9.1249554431
  O        18.2745957534       -5.8921390056       19.7546504141
  H        17.7081970819       -6.2842237699       20.4575184261
  H        17.6448698761       -5.4208804860       19.0728723662
  O        19.8407191605       -8.1519267463        7.6212758198
  H        19.3773269808       -8.7026883392        8.2501447236
  H        19.3370101237       -7.3122981099        7.3779983471
  O        10.0449699784       -5.0265715355        3.0508855897
  H        10.7107942986       -5.7415859764        3.3422374251
  H         9.5272422390       -5.4946910545        2.3654159614
  O        18.3744622401       -2.0251968635       18.8043620308
  H        18.9892943094       -2.4526087798       19.4335882229
  H        17.7153407371       -1.3879936730       19.1703152436
  O        16.9282619520       -4.0472838373       17.9338266235
  H        16.1444958699       -4.1733954368       18.5468149498
  H        17.5578779755       -3.2898447389       18.1956781513
  O        12.9642066870        2.3878885117        5.3005326355
  H        13.5371103208        2.8419999184        4.5829303564
  H        12.2031235611        2.9260951385        5.3895645970
  O        17.4890835706       -1.9790360823       14.7961561216
  H        18.1628980390       -1.5642145731       15.3485903300
  H        17.5105080860       -1.5506686150       13.8624790683
  O        21.5130404146        0.5851469025        5.3062622893
  H        22.3392851990        0.7536404470        4.8033183094
  H        21.8642109982        0.3532345171        6.2122687731
  O        19.9008763089       -0.6191129103        8.5175678821
  H        19.8938897022       -1.2727334730        9.2156689898
  H        20.7951654582       -0.4353208505        8.3150721341
  O        17.5443225711       -1.0750777689       12.0814987052
  H        16.9427707052       -1.6175144872       11.5647857529
  H        18.4085721453       -1.3924632664       11.8130484754
  O        11.3353881032        0.4067150317       16.3757606988
  H        11.5060969190        0.5919128049       15.4363771614
  H        12.0242355952        1.0610786212       16.8176764507
  O        11.8367507874       -2.0364662716        9.4844906417
  H        12.5739311621       -2.3284236725        8.8892669969
  H        12.0796290871       -2.5548936996       10.3147590052
  O        26.7609884322       -4.9079986026        6.4099541636
  H        26.9578809450       -5.3629314442        5.5625491765
  H        25.8274955820       -5.2253710408        6.5712812908
  O        13.2108765132       -5.8251967185       10.4025782018
  H        12.8613493753       -6.7389147807       10.6417325388
  H        14.1621749636       -5.6986235636       10.5861222581
  O         9.0050645647       -3.2928793138        9.7550167131
  H         8.4348891760       -3.5827029148        8.9896848572
  H         9.8441390342       -2.8799508649        9.4983820483
  O        15.1922177431        3.0851652497        9.6948791507
  H        14.9865507850        2.6334151338        8.8369635830
  H        15.5689031840        2.4194820875       10.3301921121
  O        17.5438981850        2.5583030413        6.2135936804
  H        17.0621303677        1.6949136325        6.1545324437
  H        17.9636531081        2.5493366621        7.0547221070
  O        16.7503412699       -6.8546115560       13.3421420665
  H        16.6296300817       -6.3833489935       14.2370838363
  H        17.1761182092       -7.7239112338       13.6237660687
  O        14.6346902616       -6.2045157827       16.4819093386
  H        15.3139994566       -6.9330304267       16.6978390333
  H        13.7352684341       -6.5555628889       16.2524497523
  O         5.6227636642       -5.5716183532       16.2256307975
  H         5.0482617649       -5.0452325199       16.8326356951
  H         6.4769937345       -5.0885512911       16.1594723328
  O        21.3278355053        1.4040289700       13.4115141305
  H        21.0693742087        1.6247565728       12.4539018957
  H        20.9922331430        2.1809740832       13.9681010889
  O        15.4632225502       -4.2212352634       14.7789782339
  H        15.2835576241       -5.1473131595       15.2014011190
  H        16.4231531320       -4.0508990145       15.1362199378
  O        23.0002039115       -8.1105902622        5.5472686003
  H        22.1193400847       -8.5652239386        5.3758152942
  H        22.9133206293       -7.8794014313        6.4946205881
  O         7.8501226658       -8.7882247543        1.9801763820
  H         8.2497991309       -7.9749319040        1.6030730415
  H         7.7668942230       -8.7680263110        2.9847588328
  O        13.0335740066       -8.7536718325        1.5347589772
  H        12.6517112850       -9.5912826451        1.1954519627
  H        13.1878039430       -8.2210891545        0.7689706942
  N        13.6365136332       -2.2777957861       15.2124516418
  H        14.3271171791       -1.5112594301       14.9426034886
  H        14.2906768627       -3.1683194098       15.2071124668
  H        12.8723188229       -2.5023382134       14.5674180071
  H        13.2347565264       -2.1759543592       16.1437350117
