     194
 CELL 12.4294 12.4294 12.4294 90.0 90.0 90.0 i =    81220, time =    40610.000, E =     -1097.1460226608
  O        15.6791897559        0.8487782822       12.1741149556
  H        16.5291094643        0.3390352286       12.2149073459
  H        15.8601565529        1.8078404754       11.9206831272
  O        21.7327707918      -11.2845052845        9.5214592098
  H        20.9462222404      -11.3909477551       10.0707720379
  H        22.0777752080      -12.1812918242        9.2816167931
  O        19.2870927935      -10.7616735882       10.9848239507
  H        19.4962689719      -10.1914431583       11.7493884053
  H        18.9055154384      -11.6169105101       11.4281369265
  O        13.1685759484       -2.7486479964       13.4899716468
  H        12.8263036766       -3.4613365642       14.0642673569
  H        12.4782790072       -2.0556884318       13.5610074795
  O         7.8540427856       -8.8313772601       12.8351871947
  H         8.3528163538       -8.8598360182       13.6685549585
  H         8.4417730143       -8.4071856679       12.2225604454
  O        24.3968501086       -6.9075676023       23.8454468945
  H        25.2192801524       -6.5193691763       24.0623117600
  H        24.5926039534       -6.8665736260       22.8678294155
  O        17.6492638791        0.0715864601        2.6690327367
  H        17.4378466741        0.9892204843        3.0496451471
  H        18.5061207395        0.2354041331        2.2433620139
  O        23.5055239899        2.8871597285       10.7689754878
  H        22.8814625036        2.1826111669       10.4221800608
  H        23.0039805561        3.7502265181       10.6741158362
  O        14.6040630961       -6.7535473934        3.2338223691
  H        15.0029552421       -7.2675616158        2.4700333317
  H        13.9619585145       -7.3912566991        3.6320395032
  O        18.0984050723       -2.3096623462       10.3307573942
  H        18.4559326951       -3.2869043125       10.6236880853
  H        18.6448178576       -1.9327064499        9.6257236026
  O        19.1323252784       -8.0297041686        4.2488673389
  H        19.6920003405       -7.5543235595        3.6173100827
  H        19.5172572517       -8.9528839748        4.2964138059
  O        14.4887241694        0.3898904156        9.3624537417
  H        14.0758163035       -0.4414593901        9.0486575322
  H        14.7978436892        0.2703304407       10.2950627463
  O        10.9263127258       -1.2789523910       13.4685983829
  H        10.4914113070       -1.2375968995       14.3535915984
  H        11.0767979078       -0.3448345230       13.2658141008
  O        21.4172920471       -6.8926239098       11.1467376614
  H        21.9048330737       -6.1719733999       10.6757972855
  H        20.7111608334       -6.4445800224       11.5693266039
  O        15.7411478252       -2.4599146802       11.6329831945
  H        16.5394561604       -2.4714876588       11.0126260690
  H        15.1717088063       -3.0735448342       11.2121927257
  O        21.2204164838       -2.4788397193       12.0155615432
  H        21.5741741744       -3.1000483043       11.3061369294
  H        21.9731314980       -1.9850116607       12.4835279445
  O        20.7149055210       -4.8470905330       13.4665362879
  H        20.3860229210       -4.7696895508       14.3543797712
  H        20.6934197643       -3.9116967111       13.1629935482
  O        20.9645913751        0.4759329856       14.3627537055
  H        20.7416534649        1.1182607931       15.0535037345
  H        21.5543176245        0.9429281545       13.7683273646
  O        18.6062216967        5.4432871532        9.3505011569
  H        18.2937433110        4.4590740647        9.2606018854
  H        19.5207183897        5.4669952377        9.5552318447
  O        13.8010331430      -11.3651507059       14.0536731407
  H        14.5341823861      -11.4256139930       13.4391602395
  H        12.9968472674      -11.1121307081       13.5263124619
  O        22.1569144820       -1.7141548147        3.6793407640
  H        21.1632753593       -1.7120617539        3.5552401021
  H        22.4931672980       -0.9339878630        4.1201482242
  O        15.6101759171        3.4889976926       10.9792250395
  H        16.3375702797        3.4380878223       10.2908511139
  H        14.7954895787        3.3010234890       10.4052734476
  O        23.9154315369       -1.9901957326       19.4507770365
  H        24.8079334211       -2.0757428332       19.8603307619
  H        23.8546445296       -2.6575631311       18.7051579812
  O        14.7625093051       -2.5382667035        4.6118565317
  H        14.4653189732       -1.6005425159        4.6940490463
  H        14.1833443557       -3.1141942326        5.1314310389
  O        17.2483732322       -2.2959121003        5.2978742052
  H        17.1176139511       -2.6333789148        6.2177952681
  H        16.2699947018       -2.3014353130        5.0503853465
  O        23.0121262452       -6.9148020172       13.9230322323
  H        23.3244563956       -6.7419769269       12.9810994225
  H        22.1587592968       -6.4111164080       13.8855606493
  O        26.0098217592       -9.4964686633        9.4989206271
  H        25.1264092327       -9.3370898044        9.9176885799
  H        25.9776239039      -10.4508638476        9.3271228517
  O        22.4631951685       -5.2696093324       19.9058670767
  H        22.8047608521       -4.8116438177       19.1405549782
  H        21.5836384870       -5.4922858789       19.4945867390
  O        13.4365747606       -4.9917528662        6.7342272372
  H        12.7644298848       -4.7814043554        7.3765727086
  H        14.1597077343       -5.4180780912        7.2175691373
  O        16.9592743617       -9.7483137829       15.7766661610
  H        17.7923895045       -9.2034526121       15.8685064218
  H        16.5315974003       -9.3570049508       15.0205890626
  O        12.9784886895       -3.7532730428       10.9926480360
  H        13.4562733877       -4.6069188390       11.0902557251
  H        12.9985837061       -3.3570278585       11.9287919394
  O        18.5038078442       -0.0864360798       18.5787560447
  H        17.8882973832       -0.7680446306       18.1815656167
  H        17.8695812414        0.2986852139       19.1934459633
  O        18.0382368841       -4.8745791801       11.2281998046
  H        18.0176069346       -5.6272959287       10.5969860226
  H        18.4214262653       -5.2064692744       12.0855341239
  O        16.1709947722       -2.9315701869        8.0210708711
  H        16.0825928622       -3.8784994936        7.9032270419
  H        17.0287247966       -2.8317262094        8.5721681103
  O        28.6945172932        1.3900911630        7.4778800677
  H        28.1588959083        1.6949571028        6.7030745465
  H        28.0187571260        0.9420494323        8.0222498522
  O        22.8910208909        2.4850790325        5.5313525038
  H        22.6035312896        2.8703836054        6.3652982955
  H        23.4333205917        1.6059944851        5.6024259188
  O        23.7289966427       -3.8044742034       17.1731859136
  H        24.2826235211       -4.4425852845       16.6912995092
  H        23.2081385737       -3.3438132221       16.4550776139
  O        24.5546035536       -6.9322630533        8.6937377781
  H        23.6569738992       -6.7286577510        8.3247920409
  H        24.7036103750       -7.9040562241        8.4419238490
  O        20.0442156932       -6.9633648305       19.4019738907
  H        19.2142834414       -7.1894546471       19.8097295821
  H        19.9112734474       -7.2404146587       18.4899269030
  O        22.2973462192       -8.5409074602        7.8147787757
  H        22.1354434630       -9.4152370993        8.2620497811
  H        21.3944803672       -8.1818909604        7.4868216933
  O        12.6035743515       -5.0652365953        2.6637833480
  H        13.4738897124       -5.6277251489        2.7530235875
  H        11.9308605653       -5.6422308611        2.2668526759
  O        19.5627044264       -1.7473110284       20.2194450879
  H        20.4865181497       -1.5914997529       20.5349285142
  H        19.2114533757       -0.9266035183       19.7624606344
  O        20.4648481039       -3.4861891571       18.1250727994
  H        21.3974949318       -3.1448020858       17.9615696579
  H        20.1571750092       -2.9170472101       18.9231731582
  O        14.8601798496        2.5323126689        5.1284946925
  H        15.6015398983        2.8938914962        4.5935453130
  H        14.2600061523        3.3148911824        5.2703673480
  O        19.3963206737       -2.2542382074       15.7035342710
  H        19.4362665755       -2.6084318831       16.6745518762
  H        18.6835299369       -1.5470280777       15.7577685756
  O        23.6684118093        0.0565771593        5.2521819878
  H        24.5786189679       -0.1587496007        4.8263583301
  H        23.7001492646       -0.5660620639        6.0492659039
  O        22.0571279682       -1.5964172354        8.8996423935
  H        21.9572354244       -2.3079667761        9.5751394620
  H        22.7586972485       -1.8746594352        8.2819145279
  O        18.8978063421       -0.5309084336       12.3275324379
  H        18.8625936088       -1.2805212720       11.6576023971
  H        19.6538148937       -0.6404014524       12.9179512676
  O        13.8238399160       -0.0068777633       16.5348368429
  H        13.8640240329        0.2911309986       15.5911067622
  H        14.1641666630        0.8337836905       17.0381478435
  O        13.7104740408       -2.1930249442        8.7109285942
  H        14.6320038711       -2.4663124981        8.5624653285
  H        13.3203150446       -2.7304341551        9.5209527057
  O        28.7682232390       -5.7407120576        7.6154986667
  H        29.0128446683       -6.0017690021        6.7403853185
  H        29.5575502936       -5.9729538402        8.1756284628
  O        14.9310112241       -5.9783925712       11.1975701259
  H        15.1818949885       -6.9618308900       11.0369998628
  H        15.7714253359       -5.5222973038       11.3684563749
  O         9.9995237733       -4.2832450835       10.1313320631
  H        10.0779232013       -4.4609824767        9.1356305805
  H        10.9102854693       -4.3496388332       10.5585759259
  O        17.8042080790        2.8829760225        9.2485039358
  H        17.4661924052        2.3721167838        8.5079047026
  H        18.2619400558        2.2745831122        9.8803482053
  O        20.1373081392        1.4942236748        4.2686947364
  H        19.6264493359        0.9518427938        4.9256777668
  H        21.0114280320        1.4707921720        4.6826447289
  O        17.9711338583       -6.4791902137       13.5299895866
  H        18.1055319661       -5.7932752792       14.2339343206
  H        18.8051112768       -7.0460797750       13.5633900576
  O        16.9831062453       -6.3209135093       17.1436742722
  H        17.6641865579       -7.0541112463       16.9628854299
  H        16.0737921175       -6.6772829343       16.9598386546
  O         8.7380307457       -5.8475707828       16.5289813181
  H         8.4103668552       -5.1666595971       17.1783979784
  H         9.6837298907       -5.6352597876       16.3823736540
  O        23.5001635832        1.7491380802       13.3257966061
  H        23.5666889411        2.3102503446       12.4985666968
  H        23.1526107026        2.4296159288       13.9510524274
  O        17.5684344377       -4.2974898421       15.4341824373
  H        17.3614080623       -4.9930324417       16.1508649195
  H        18.2245535504       -3.7620910820       15.8717125489
  O        25.1579698041       -7.9433170323        5.4018911336
  H        24.2937252796       -8.3446267538        5.4499546369
  H        25.1016724236       -7.0627416604        5.7637004358
  O         9.8273101145       -9.2457511120        2.9456473863
  H        10.0699693148       -8.3003434306        2.6928363247
  H        10.2144654274       -9.5012390554        3.8382808845
  O        15.8772644285       -8.1948648336        1.2935285129
  H        15.2120298078       -8.4160244853        0.6316457808
  H        16.5961430342       -7.6281388817        0.8664767956
  N        16.0582863592       -2.2026840987       14.3135365875
  H        15.0188622132       -2.2234497894       14.5351573330
  H        16.1086308910       -2.4648137460       13.3245740138
  H        16.4030716917       -2.9663871700       14.8695233454
  H        16.5570313587       -1.2745303063       14.5852114352
