     194
 CELL 12.4294 12.4294 12.4294 90.0 90.0 90.0 i =    41620, time =    20810.000, E =     -1097.1526471653
  O        -2.7326098163        2.4601749638        9.9116171061
  H        -3.2238707705        2.1736802011        9.0857268541
  H        -1.8335964789        2.6352330058        9.5383773776
  O         3.8202896470       -9.9408249864        6.2738310120
  H         3.5636230364      -10.0709319104        5.3743516184
  H         4.8505560375       -9.9251673358        6.2703046668
  O         0.1983644355       -9.9276806453        9.9274595210
  H         0.5583734954       -9.0487477729        9.5909788796
  H         0.8643214457      -10.6504059079        9.8665104773
  O        -4.9474413921       -1.2876974018       11.0090166967
  H        -4.8965221520       -2.2544997483       11.0190026783
  H        -5.7223234480       -1.1315958140       11.5905732140
  O       -11.5004951508       -7.5146721868        9.2678991219
  H       -11.3624693340       -6.8493120595       10.0584282085
  H       -10.6071101029       -7.5424552956        8.8448303085
  O         3.5314318546       -3.5979362845       18.6218356402
  H         4.0473190817       -3.0047729290       18.0080903082
  H         3.3394793031       -2.9818421938       19.2736176401
  O         0.4702127612        2.9415572514        0.3139450861
  H         1.4009940028        3.2636049103        0.5213333575
  H         0.3341705259        2.7495940054       -0.6217943027
  O         3.6143259455        4.9029452574        7.9150197357
  H         3.4574641158        4.0516856858        7.3524968037
  H         3.6294285005        5.6926220630        7.3388825210
  O        -3.6310987461       -4.4666028361        2.8920711127
  H        -4.2141992032       -5.2815608194        2.7807918108
  H        -4.0107946197       -4.0336860113        3.7313732049
  O         1.6367290994       -1.4880579524        5.0562542976
  H         1.1501316727       -1.7728639310        5.8657931668
  H         1.7619686698       -2.2688207359        4.4419196871
  O         2.4909186597       -5.1985710303        1.3703013656
  H         3.3772836779       -4.8851626978        1.0497582415
  H         2.7131905040       -5.8360067917        2.0718965541
  O        -2.3425416851        3.2974246998        4.9638010646
  H        -1.8616782952        3.9572397271        4.3352399549
  H        -1.6058543957        2.7126018180        5.1611321315
  O        -6.6283474760        0.4923557391       12.8738762842
  H        -7.6036174780        0.7220364570       13.0370490644
  H        -6.0372399912        1.2911282690       13.1183800407
  O         1.5571284854       -5.5542199740        6.3356006515
  H         2.2731325851       -4.8973574684        6.0956925302
  H         1.0323078820       -5.2375097128        7.1619209868
  O        -0.4999679012       -1.7553030905        7.1030932208
  H        -0.6093069651       -2.7983938014        7.1852516704
  H        -0.2604470764       -1.4518065409        8.0162955378
  O         4.4948373934        0.9410006781       10.2518945455
  H         4.9649925831        0.4527213674        9.5046606419
  H         5.1738280974        0.9419581742       11.0632671328
  O         3.0602186458       -1.9305232921        8.6394375075
  H         2.2427632671       -2.4495954020        8.5620196254
  H         2.8091677295       -0.9984288481        8.3770816267
  O         3.0410668095        3.6990934816       13.0838429726
  H         3.8523442821        4.0678021089       12.6933198145
  H         3.0526033690        4.1918306738       13.9566867125
  O         1.4154209667        4.6488553436        4.7729601194
  H         1.0854252672        3.9500810427        5.3622498865
  H         1.3320963599        5.5054618705        5.3576430128
  O        -3.3814914295       -7.9216934259       11.8657776959
  H        -2.6125407232       -7.8630566721       12.5432829018
  H        -3.1021791604       -8.5722470192       11.1786055244
  O         3.3611504506        1.1295295068        1.0093729829
  H         3.4413438009        0.8967538208        1.9506183656
  H         3.1549233873        2.0995177426        1.0503415888
  O        -1.6553697100        6.3450617669        8.2033141782
  H        -0.7709547959        6.0043723926        8.3730521597
  H        -2.1780216674        5.6174141801        7.7715406953
  O         4.7486495357       -2.2587028760       13.9503763223
  H         4.0100759731       -2.4352574666       13.3180500931
  H         5.0016521465       -1.3331421846       13.7451651266
  O        -2.8851988065       -1.6836827316        1.9002367764
  H        -1.9314525313       -1.6880255019        2.1196970739
  H        -3.1719448745       -2.6552269129        1.9074051993
  O        -4.3081589260        2.1435309188        3.4524705866
  H        -4.2618161051        1.1324003172        3.4964985235
  H        -3.4112286736        2.3789847098        3.8386284777
  O         5.2890963364       -4.2608655009        8.7228851699
  H         6.0090867228       -4.6946764399        8.1380370968
  H         4.8471509278       -3.5055884314        8.2929312604
  O         8.9095574873       -7.6667661954        7.2240102776
  H         8.3080712248       -8.2133848331        7.7413676714
  H         9.1475377065       -8.3400665202        6.4711668727
  O         2.7994122481       -2.4864465038       12.0776860566
  H         1.8719362686       -2.4595298708       12.3482090147
  H         2.8562178628       -1.7587158876       11.4230633538
  O        -3.8513011210       -3.3488611756        5.5406997452
  H        -4.2546401738       -4.1577817780        6.0007199204
  H        -2.9237598068       -3.3495736830        5.8903795044
  O         0.7123947931       -5.8926972704       11.6457049399
  H         1.5052524533       -5.6685439716       12.1339293426
  H         0.3874787579       -4.9572392732       11.5477091790
  O        -6.0461564251       -0.2591652075        8.5979584890
  H        -6.1585788483       -1.0309373752        7.9888200423
  H        -5.6035022349       -0.7262014443        9.4024786518
  O        -0.7317307041        0.6078329886       13.4406163470
  H        -0.0658460395        1.2916043337       13.2108561403
  H        -0.5948022567        0.5370342689       14.4314203592
  O        -0.8802580494       -4.9801430329        3.9182649249
  H        -1.8681011298       -4.8762085470        3.6641938778
  H        -0.8402751420       -5.9435690582        3.6981273660
  O        -2.2501772928        0.1944203432        5.7974005041
  H        -3.0917393349       -0.1380081390        5.3333183336
  H        -1.7425261317       -0.5968526404        6.1928027861
  O        12.0636887765       -0.3902356958        3.4956622250
  H        11.2815664011       -0.2296005068        4.1136880993
  H        12.7471790388       -0.5854829634        4.1924990716
  O         7.2224374772        2.8254620022        0.8596663396
  H         7.8051673633        2.6377902781        1.6792622683
  H         7.7054237992        3.4403824798        0.2727473014
  O         5.7397290595       -4.7576192923       13.3674589592
  H         6.3537282295       -4.4727438864       12.6177211829
  H         5.6131081295       -3.9720969389       13.8933068245
  O         7.1219259383       -5.4654041941        6.7612599721
  H         6.4717165079       -5.6220816521        6.0760340912
  H         7.7418942016       -6.2424282060        6.9432988540
  O         1.3132109904       -3.3533457223       15.4795849819
  H         1.8748875807       -3.9310127488       14.8853584077
  H         0.5763435970       -3.9956314256       15.7711155649
  O         5.6240011916       -6.7596251078        4.8978618558
  H         5.8989836006       -7.6288341758        5.3255614455
  H         6.2049070719       -6.6824192090        4.0816546869
  O        -5.3269545709       -4.0351018003       -1.6287546375
  H        -4.4920604673       -4.6237389881       -1.7055177964
  H        -5.9725653492       -4.0474840773       -2.4341598249
  O         3.3126826238        0.6943069629       16.2767215972
  H         4.0793741848        0.0234189977       16.4435330424
  H         2.4324220348        0.1615256178       16.4203042408
  O         0.1371548311       -2.0301219898       13.2521311746
  H         0.5767689637       -2.4092509751       14.1182091029
  H         0.0147228234       -1.0688382180       13.3216794939
  O        -0.8613320732        4.8853230298        3.4067507804
  H        -0.8990330912        5.0651625282        2.3702365590
  H         0.0705446847        4.7504273277        3.6710036852
  O         2.1083373878        0.2872017715       10.9087294187
  H         2.1869579437        0.3911387275       11.8754166925
  H         3.0702837769        0.5630371328       10.6133195634
  O         6.7833810903        3.1496490512        5.6200902919
  H         7.0826545577        2.7367875367        4.7851413269
  H         7.3774406535        2.7445885571        6.2742652053
  O         5.2753861528       -1.2027556958        4.1848138524
  H         6.2231712487       -0.9363758716        4.0168767059
  H         4.9778327104       -1.7728517067        3.3857552746
  O         2.3613156765        0.3066369378        7.1196874548
  H         2.2884867364       -0.3587395721        6.3962308068
  H         3.0871518940        0.9277466722        6.8319872626
  O        -0.9052166169        5.1339839516       13.1124729353
  H        -0.3112802462        5.7379893506       12.5340196942
  H        -0.4272043102        4.2335877334       13.1078067484
  O        -4.1074411435        1.6243989267        7.5865329272
  H        -3.4792771137        1.0577586834        7.1090491847
  H        -4.7534095504        1.0271723159        8.0371212304
  O         8.1874816735       -0.9236498556        4.1978368692
  H         8.3205119726       -1.7172515951        4.7632981862
  H         8.6686891484       -1.1121135616        3.2925382986
  O        -1.5482477949       -4.1343137577        6.5109191149
  H        -1.7297362319       -4.8927627046        7.0695421213
  H        -1.0735754022       -4.4252120508        5.7530434706
  O        -6.3592153805       -2.2156712283        6.6614495827
  H        -5.4714951983       -2.6896515695        6.4744532955
  H        -6.6749460743       -1.6301933756        5.8891769577
  O         0.5066787332        2.6999876215        6.6920298654
  H         0.1134431315        2.7400203503        7.5367581152
  H         1.2224045497        1.9935671496        6.8177181362
  O         3.3038277111        5.3933305036        3.1686003479
  H         4.1099738392        5.4395305372        3.7385679740
  H         2.7465271704        4.8865043560        3.8519226377
  O         1.2380581914       -4.0550936609        8.8134399596
  H         0.4940372047       -3.6862697684        9.4266430082
  H         1.8948027009       -4.5256724535        9.3850304465
  O        -0.6915763325       -3.7254575933       11.2421730437
  H        -0.6730088698       -3.1130221633       12.0034027330
  H        -1.6340805192       -4.0456375015       11.1094245510
  O        -9.2225970533       -4.7757961744       10.4708472573
  H        -8.3685546782       -4.8994806140        9.9315641802
  H        -9.0188823103       -3.9363687949       10.8548127079
  O         6.9126881824        4.1164872929        9.3423348338
  H         6.9833067034        4.7964016960       10.0055048311
  H         5.9569772843        4.2147659296        8.9840407633
  O        -0.2250661117       -0.7209468825        9.7623949500
  H        -0.1347672289       -1.5430613033       10.2530016381
  H         0.5552309981       -0.1539030168       10.0392807070
  O         7.0209442117       -6.6794177192        2.4380894381
  H         7.1054445496       -7.5516198820        1.9929424007
  H         6.4397502183       -6.1323899798        1.8541661055
  O        -7.4320825363       -7.0950504076       -0.4089817082
  H        -8.0194436655       -6.7072475105       -1.0164837945
  H        -7.3731441711       -6.3467127992        0.2082432540
  O        -2.9597581207       -5.3657858402       -1.6866787019
  H        -3.0001936882       -6.2474708017       -1.1950759778
  H        -2.4896758023       -5.5992472719       -2.5615702370
  N        -2.4806260148        0.2321670715       11.4197971945
  H        -2.6318247727        1.1425154014       10.9106090723
  H        -1.7386355325       -0.2021054428       10.7946126688
  H        -3.4264539583       -0.2463161197       11.5162849896
  H        -2.0478344895        0.3989259790       12.3595321568
