     194
 CELL 12.4294 12.4294 12.4294 90.0 90.0 90.0 i =    51220, time =    25610.000, E =     -1097.1740321461
  O         1.6113958628        1.2861932721       10.8712184209
  H         0.9834822921        1.0033101371       10.1220866458
  H         2.4894732806        1.3809417354       10.4022004050
  O         7.7581145422       -9.6894599243        8.9364737219
  H         6.9475098822       -9.1735456326        8.9698087872
  H         7.3959678589      -10.6228101054        8.7796859781
  O         4.4050337447      -10.9309205406       10.3916772021
  H         4.9074960240      -10.1325511345       10.6100201754
  H         5.1163673042      -11.5690230164       10.1177969163
  O        -0.4893661128       -2.0625755731       11.7734881483
  H        -0.7135475360       -3.0138483227       12.1295870314
  H        -1.1871018624       -1.4989882591       12.1741302758
  O        -6.8438979487       -8.9985744300       11.6570033271
  H        -6.5271255860       -9.1742348190       12.5519471050
  H        -5.8999762317       -8.8657390966       11.2700564030
  O         6.5956220529       -3.0883948123       19.6511015536
  H         6.3464200767       -3.6913658448       18.8688098107
  H         7.5502493541       -2.9167894277       19.4459469616
  O         3.8919303679        1.6682253863        0.8785995861
  H         3.5894382075        2.5976047739        0.7071025586
  H         3.9974098634        1.3748793564       -0.0737910306
  O         8.4510455480        3.4891623686       11.4203663880
  H         8.3452910281        3.2099632564       10.4761944137
  H         8.7853235323        4.4575944118       11.3578436633
  O         1.3686418146       -3.6019587047        2.5438272208
  H         0.6155530365       -4.2129856046        2.5373414728
  H         1.4776332742       -3.5437965887        3.5704171118
  O         4.5915400103       -1.2664874499        7.2023671290
  H         3.8720317038       -1.6395206791        7.7752178936
  H         5.2599337349       -1.9620736791        7.3351824364
  O         6.0665982419       -6.6843930600        3.3609427423
  H         6.9333410890       -6.3912140118        2.8935354275
  H         6.3692706387       -7.4175454921        4.0436728608
  O         0.8202760991        3.1861744220        7.6331985151
  H         1.3103618562        3.6875554970        6.9236207162
  H         0.3860922850        2.4542440944        7.0913463091
  O        -2.8193436776       -0.2638186661       12.6595935222
  H        -3.4956392111       -0.2634514862       13.3463132047
  H        -2.3509111319        0.5923257806       12.8427820918
  O         4.9450512457       -4.8536947345        8.8299439141
  H         5.5128188437       -4.1176714366        8.5238789521
  H         4.5992183068       -4.6219556851        9.6882842372
  O         2.7014589721       -1.8797335023        9.0133438567
  H         1.9846959608       -2.5547747784        8.8246187625
  H         3.2109305538       -2.2513660435        9.7558295437
  O         8.3228657034       -0.6864705094       10.3566634801
  H         9.0683648821       -1.2466892332        9.8729800167
  H         8.7402154697       -0.2529736994       11.1598857233
  O         7.1354911907       -4.8423142930       12.1810390848
  H         6.3494653978       -5.2730705905       11.8109676276
  H         6.9122640125       -3.8663292568       12.1753939200
  O         6.3622890642        2.9315646604       14.2595596114
  H         7.2703875762        3.2515201553       14.5926370948
  H         5.8261462188        2.7879311242       15.0900389970
  O         5.4766441172        4.5027438457        8.7278114790
  H         4.9285608666        4.1371378843        7.9703821996
  H         5.3538559586        5.4948505039        8.7103334789
  O         0.1090595484       -8.8907606105       12.1643556974
  H         0.8973559060       -9.4013108169       12.3878482515
  H        -0.6838722557       -9.3925034943       12.4963827912
  O         6.8605558437       -0.1870970167        1.3899898897
  H         6.7829594558       -0.4215054975        2.3294974986
  H         6.6056352273        0.7853739746        1.4495238327
  O         1.8253662389        6.5032836254       10.0865362576
  H         2.7021047526        6.2047835074        9.7703770614
  H         1.1795237223        5.7096327439        9.7731145754
  O        10.5563015522       -2.0287688210       15.7327269650
  H         9.7455299015       -2.0810529224       15.0442086721
  H        11.1910639107       -1.4790098729       15.1825231025
  O         0.4975325429       -0.8811936068        2.2250984160
  H         0.7893451622       -0.0225095947        2.6958037976
  H         1.0639025800       -1.5802741994        2.5517994727
  O         1.3463551678        0.7820282296        4.3793535820
  H         1.9465657895        0.0406489045        4.6201473051
  H         2.0327432014        1.5050479006        4.2396942736
  O         9.1862357471       -6.2130738182       11.0514457959
  H         9.4979223786       -6.1578327294       10.0797612666
  H         8.3652277785       -5.6882524647       11.1182406416
  O        12.4342601091       -7.9271544440        9.6718763124
  H        12.5382440874       -8.3081386907       10.5844002489
  H        12.6928176279       -8.6765101658        8.9449547761
  O         8.3435177858       -2.8329674688       14.1309109377
  H         7.3777004876       -2.9385214914       14.3474247970
  H         8.3823635674       -2.6298650745       13.1728552793
  O        -0.8579459256       -4.0228577595        6.2533443765
  H        -0.8534183626       -4.8935252225        5.8544343299
  H        -0.7259287800       -4.2009329058        7.2464264542
  O         3.6818545511       -7.6278696568       14.1499763302
  H         4.4354547142       -7.2586034453       14.6519150525
  H         3.0559671135       -6.9053266768       14.0283607816
  O        -1.6649552761       -1.7429913387        9.2184899223
  H        -1.9879363729       -2.0206506536        8.3089066760
  H        -1.3701940253       -2.5226882782        9.7362362786
  O         3.7223931241       -1.1089811113       14.5975003164
  H         3.7084805105       -0.1121280392       14.4884074937
  H         3.4157821204       -1.2856061491       15.5096067444
  O         3.2423682746       -4.8867827001        6.3679392072
  H         2.8233161447       -5.7643839331        6.2069611321
  H         3.6721952267       -4.9631957905        7.2732097702
  O         3.0924787862       -1.2193204068        4.8691614332
  H         2.4500112631       -1.9675413477        5.1295126228
  H         3.6495040614       -1.0059509635        5.6980365598
  O        17.3235367698        1.5353128077        5.3709385392
  H        17.0491438272        1.6206599343        6.3067843776
  H        17.9588309856        0.8185400068        5.3499127253
  O        10.4627533228        3.6445233614        4.9536216668
  H         9.7354049654        3.8320400539        5.6824456960
  H        10.8686116764        2.8193428319        5.2318447115
  O        11.0086947055       -5.0115934039       15.3589221143
  H        11.0707040382       -4.8392988683       14.4154722619
  H        11.1139953667       -4.0753254995       15.6699976353
  O        10.4510087396       -6.2646355237        8.6626017306
  H         9.8691470232       -6.8153224097        8.0831066696
  H        11.1203156718       -6.9172460191        8.9800393661
  O         5.7043319577       -4.2927035165       17.2618302534
  H         5.7775305959       -5.1881767459       16.7597545884
  H         4.7350094897       -4.2649903726       17.5572434356
  O         8.7564088424       -8.3134435471        6.8844232411
  H         8.4977165871       -8.9876336290        7.6249023321
  H         7.8935729865       -8.1418401191        6.4593040535
  O        -1.2193169693       -4.7678257577       -0.0209166793
  H        -0.3340119936       -5.2056972308       -0.1490253079
  H        -1.9289737286       -5.1624489281       -0.5974192426
  O         6.5905576071       -0.4176626127       16.8343409940
  H         7.5588247714       -0.2992446894       16.8310342478
  H         6.4504877226       -1.3555917045       17.1424180630
  O         5.7326218072       -2.9189611586       14.7270570874
  H         5.8027168405       -3.2168475293       15.6159534456
  H         5.1303866408       -2.1645293035       14.7333067562
  O         2.0456269683        4.9910441286        5.7928094042
  H         1.1314859606        5.1250725179        5.4354305938
  H         2.4498491361        4.3706119389        5.0864062639
  O         6.3099554793       -2.0603366055       11.6986030996
  H         6.4111953470       -1.4945658407       12.4995244380
  H         6.9102174733       -1.5370510562       11.0572216055
  O        11.7798523644        0.9624113861        6.1752724756
  H        12.4752207664        0.6509037465        5.4866612490
  H        12.1266945998        0.5717581149        6.9915024914
  O         9.4245451444       -0.4130359281        5.1821936987
  H        10.0595757911        0.2313833918        5.5143871348
  H         9.8575985010       -0.8707392861        4.3386024858
  O         6.3057335623        0.3006865918        8.6971262580
  H         5.6595682306       -0.1362686368        8.0351850690
  H         7.0178337827       -0.3005038850        8.9028199715
  O         3.1070992115        3.0929439484       16.6426821566
  H         3.3069584706        3.3899274635       15.7064874498
  H         3.8296240719        2.4913018065       16.9312253768
  O         0.1989746915        0.1675268104        8.6348314457
  H         1.0291421368       -0.3825954103        8.5666926328
  H        -0.5019336536       -0.5154595188        8.9348876018
  O        13.8837826178       -3.1250978203        5.2038817066
  H        14.3312585112       -3.9069212975        5.5823524589
  H        12.9990061817       -3.1240275029        5.6430155123
  O         0.8965918277       -4.0663654157        8.3840804407
  H         1.2013706636       -4.7525444673        9.0991174117
  H         1.3700768434       -4.2218250273        7.5340871223
  O        -3.1269702650       -2.4593605933        6.7389488256
  H        -2.3372853367       -3.0448034875        6.4944780887
  H        -2.9376299770       -1.6387512852        6.2401359458
  O         3.7451455836        2.2023710375        7.7814788296
  H         2.8068312388        2.4328566251        7.8579848445
  H         4.0435434886        1.8947865854        8.6707511184
  O         6.8749884703        3.4762350233        4.8385116105
  H         6.3292353765        2.7524310997        5.1009100086
  H         7.5791073639        3.3383264724        4.2086700588
  O         4.7535362856       -6.2804339901       11.4318780910
  H         4.3655965135       -6.2062198828       12.3262177555
  H         5.0143927840       -7.1818654187       11.3603410566
  O         3.6385382842       -4.3104940108       13.3559509768
  H         4.3363184292       -3.7293753810       13.8802135961
  H         2.8490490141       -4.2970947988       13.8862651178
  O        -4.1551693026       -5.9938442422       14.3665964627
  H        -4.4882876533       -5.6705045803       13.4335104901
  H        -3.5217988798       -5.3146616623       14.7108931741
  O        10.2826680125        2.2726129941       12.9885417416
  H         9.6909794532        2.6444632282       12.2907520972
  H         9.9849777240        2.6412389086       13.8946588518
  O         4.0111587332       -3.1185703398       11.0792601998
  H         3.7482928836       -3.7559827043       11.8134320423
  H         4.8530501094       -2.6935132411       11.3242707379
  O        12.0441755007       -6.6398998277        5.0280952624
  H        11.3454307544       -7.3507356052        5.0383168277
  H        12.0461093100       -6.3821286118        4.0808082185
  O        -3.4275036886       -8.5919683567        2.5099032870
  H        -3.5214963684       -7.6321049719        2.2354112434
  H        -2.9028864350       -8.5950913338        3.3160560441
  O         1.0382493461       -6.3817506863        0.3126496374
  H         0.7849737640       -7.3315893025        0.3382025124
  H         1.5504175193       -6.2889331266       -0.5087561377
  N         2.1648261580       -1.1653771830       12.1391527907
  H         2.1780780466       -0.2192287404       11.5997704075
  H         2.8066471419       -1.8377319829       11.7407858618
  H         1.1680635702       -1.5025456451       12.2862487852
  H         2.3876833507       -0.8443612199       13.0965004870
