     194
 CELL 12.4294 12.4294 12.4294 90.0 90.0 90.0 i =    85220, time =    42610.000, E =     -1097.0972537570
  O        16.3584259061        1.3320471620       12.0923331902
  H        16.7146860872        0.3871159009       11.9605918504
  H        17.1364855700        1.9251496657       11.8757772054
  O        22.7968287680      -10.5074724074        8.7297831267
  H        21.8056573413      -10.5898291360        8.8939810940
  H        23.2765121044      -11.3133249070        9.0010262248
  O        20.0487680702      -11.8346760295       11.7309096492
  H        20.1818825115      -11.2244009207       12.4209911024
  H        20.3828436853      -12.7465834594       12.0524539326
  O        14.9793748568       -2.1307429182       13.5391196145
  H        15.5705329117       -2.3215889428       14.3249350509
  H        14.3038484709       -1.4814717413       13.7471483137
  O         8.3338211271       -8.8404812456       13.8192336492
  H         8.7833342964       -9.5327117376       14.4319449296
  H         8.7466867104       -8.9966316251       12.9497545264
  O        26.4843699345       -6.5323722673       24.9844103951
  H        27.3590774355       -6.6595182397       25.4058455969
  H        26.2282773226       -7.2989904476       24.3262874728
  O        19.6846823172       -0.3276144873        3.6304689813
  H        19.1978826557        0.5106032778        3.7156231091
  H        20.2760715819       -0.1211451077        2.9174839332
  O        23.0150901255        3.2414845263       11.5283194728
  H        23.1038142574        2.7591735021       10.6911743387
  H        23.4110379628        4.1054936946       11.3650554818
  O        16.1618483849       -6.4236166273        3.6370783400
  H        16.6928341239       -6.7077247400        2.8818698447
  H        15.6886058704       -7.1921918663        4.0397152885
  O        19.3885434854       -3.1402641075       10.0920141226
  H        19.4450050278       -4.0785070252       10.3847494737
  H        20.2418603336       -2.8629811166        9.4923221336
  O        20.7835260232       -8.4676473654        5.0420783696
  H        21.5328223707       -7.7582624068        4.9187049078
  H        21.1861522222       -9.3522368882        5.1616038399
  O        15.4687875447        0.3425986580        9.5919407880
  H        15.2466071253       -0.6814361400        9.6172806616
  H        15.9798706732        0.3614774610       10.4237561399
  O        12.4696990465       -0.9513647569       13.9134782136
  H        12.2004010196       -1.0819221104       14.8897050047
  H        12.4318099389       -0.0222765724       13.7353393552
  O        22.6294714478       -6.3452646904       11.2689529953
  H        22.9424949552       -5.7530622831       10.5336979400
  H        22.4552773156       -5.8012232250       12.0289932333
  O        17.8094208953       -1.4820956918       12.0139932240
  H        18.2913366863       -1.9129841571       11.2911017848
  H        16.9719101043       -1.9976159487       12.1664458135
  O        23.3580129309       -2.2556926570       11.7839642163
  H        23.7907197624       -3.0923470513       11.4869039886
  H        23.8290875487       -1.9866395273       12.6630308757
  O        23.7527297267       -4.9111704444       13.5535087628
  H        24.6023043910       -4.9996155582       13.0476981492
  H        23.9751263775       -4.4235602648       14.3420310224
  O        21.8374619046        1.4393330506       15.0818834113
  H        22.2526150082        1.4462526976       15.9746016461
  H        22.6076116787        1.4483270904       14.5002611795
  O        20.4954432785        4.5686345803       10.1722478464
  H        20.5135048103        3.6048959099        9.8253629161
  H        21.3623329402        4.9528232515       10.6656917769
  O        16.2288165896      -10.2975325837       14.5368374747
  H        16.3899613097      -10.8824477822       13.6794683129
  H        15.4164988275       -9.7595534840       14.4421873675
  O        23.8146171362       -1.5078232105        3.9368172635
  H        22.9009941105       -1.1489791256        3.9941001240
  H        24.3734446291       -1.1311275971        4.7198260814
  O        18.1603174804        3.3055643972       11.3294509700
  H        19.0176136179        3.2763526097       10.8993078545
  H        17.5195716687        3.8561147996       10.7602592877
  O        25.4712209859       -2.1609742518       20.5624512608
  H        26.2308216705       -2.2501429959       21.1629081757
  H        25.1335670075       -3.0575365670       20.2947362107
  O        16.1616172383       -2.2436517861        3.8896766300
  H        15.8305855597       -1.3794589286        4.2459746042
  H        15.3837420373       -2.9299800988        3.7831935546
  O        18.1981244462       -2.7058905433        5.6883995640
  H        17.7745415050       -2.9978559610        6.6180791554
  H        17.3970364133       -2.5560230172        5.0893542214
  O        23.3015095618       -7.2319632923       14.6378978383
  H        23.4005630574       -6.5231044346       13.9686557818
  H        22.3995814849       -7.6350345544       14.5626790385
  O        25.6434015852      -11.0191017537       10.3552451599
  H        25.3794675242      -11.3749381120       11.2312674846
  H        26.5277454904      -11.3798161574       10.1016332724
  O        24.4631816369       -4.5439055721       19.5953471120
  H        24.8807585984       -5.3636362406       19.1660945290
  H        23.5053295929       -4.5363091021       19.2399712093
  O        14.2798006791       -6.6217719543        7.5954834592
  H        14.1620243301       -7.1134325135        8.4145163929
  H        15.2720934310       -6.3108760958        7.5231838891
  O        18.6089165736       -9.9008708948       15.9858142075
  H        19.4692829130       -9.5252149268       15.7045016050
  H        17.9431580899       -9.8359671948       15.1870698448
  O        13.9025695377       -3.7421736633       11.5850492029
  H        14.0493547380       -4.6891223165       11.8074519427
  H        14.2386138648       -3.2832182962       12.4111243604
  O        19.5929075015       -0.4480262126       19.2413037281
  H        18.9593527796       -0.8623425389       18.5947071983
  H        18.9510681160        0.0954455128       19.7595837169
  O        18.9592695958       -5.6566021465       10.6656168907
  H        19.4891906853       -6.3779395763       10.2514730345
  H        19.2404912923       -5.7472413893       11.6056435094
  O        17.2082920464       -3.5708882789        8.3960087683
  H        17.2139815697       -4.5193777267        8.2913936898
  H        17.9874819632       -3.2766198120        8.9878978202
  O        30.1232029740        1.0741324061        7.8620697858
  H        29.6754765387        1.3830147113        7.0168126573
  H        29.3602066301        0.6866360895        8.3678617745
  O        24.5768159973        3.0499430571        4.8909724218
  H        24.2193179854        3.5038838524        5.7372353853
  H        24.6011715034        2.0682482860        5.0487104440
  O        24.1213999258       -4.0702711524       16.1792229669
  H        23.7377585774       -4.7270041552       16.8294414334
  H        23.8531724115       -3.1552147994       16.5026672528
  O        25.6828339320       -8.2014863660       10.3628808709
  H        25.1293196759       -8.1475451937        9.5460325879
  H        25.8425953027       -9.1640973334       10.5655890474
  O        21.1499253637       -6.9340080756       19.7939813179
  H        20.6871549825       -7.2108198264       20.6269744532
  H        20.8454812742       -7.5309827796       18.9948849669
  O        23.7822035923       -8.2638827148        7.4437247791
  H        23.3973885551       -9.0916640553        7.8942791446
  H        23.0551031983       -7.5934569718        7.5231831106
  O        14.3832641217       -4.0142828084        3.3679708431
  H        14.7268681879       -4.9693084751        3.4231174762
  H        13.4787122800       -4.1132232526        3.7114058040
  O        21.0858504478       -2.0888742396       20.7916072082
  H        21.7996425947       -1.4273020304       21.0735577250
  H        20.4764377154       -1.5746441880       20.2004331908
  O        21.9246951915       -4.3198917421       19.0309271612
  H        21.5922170573       -5.2388117612       19.1249858755
  H        21.4800238367       -3.7843098043       19.6993108871
  O        16.6421358992        2.2587155524        5.6881549670
  H        17.4124045864        2.4501273274        5.0283631104
  H        16.1158238956        3.0811342243        5.7748442475
  O        20.9814354365       -2.8617261644       16.9782524708
  H        21.2794459050       -3.5675742146       17.5833921682
  H        20.0572756034       -2.7002485084       17.2714601358
  O        25.2817452904       -0.5677385346        5.9201290919
  H        26.1475394524       -0.3137396768        5.6190342107
  H        25.4215069136       -1.2684963915        6.6479576208
  O        23.3189071656       -0.9736263108        9.3910641196
  H        23.3403982320       -1.2204711790       10.3488971146
  H        24.0445588541       -1.4382506034        8.9164874722
  O        20.7709869469       -2.2936084136       12.6970440161
  H        20.3274205659       -2.6580207533       11.9188965132
  H        21.7404983718       -2.3233398924       12.4643782621
  O        15.5350435568        0.2794365571       16.7779797093
  H        15.8003058653        0.7380453232       15.9853151103
  H        16.0010180410        0.8206585657       17.4127985633
  O        15.3667863987       -2.3807446242        9.7690428582
  H        16.0166943872       -2.9158239537        9.2472646996
  H        15.0765738141       -2.9743060560       10.5694133413
  O        29.8261237595       -6.2875106112        7.2690424505
  H        30.1548981589       -6.3931792055        6.3607256919
  H        29.9365486656       -7.1279467509        7.7674243011
  O        16.6532329362       -7.2458053586        9.8466177709
  H        15.7794145067       -6.8642077755       10.0523280528
  H        17.2245650051       -6.3946442767        9.9207465370
  O        11.0455890910       -4.1816031859        9.5755930105
  H        11.5805471661       -4.4632427816        8.7939942229
  H        10.6915797745       -3.3313699251        9.2659196308
  O        20.1780460249        1.9185695738        9.3884617335
  H        19.3538027088        1.7462941197        8.9036140826
  H        20.2263880783        1.2630108516       10.1372671351
  O        22.2259769362        1.0489653534        5.9033268168
  H        21.4863543072        0.4522927102        6.0655327042
  H        22.3797162121        1.5226494680        6.7947079201
  O        19.7576902516       -6.3182801306       13.3224375376
  H        20.0939594589       -5.8783733417       14.1583719122
  H        20.0353718139       -7.2394720872       13.5771721493
  O        18.7322434707       -6.5482846549       17.2594651462
  H        19.1110826872       -7.4569459431       17.0984176904
  H        17.9123281691       -6.4702952425       16.6597057143
  O        10.1981060017       -6.6548919342       17.0569351521
  H         9.6289255279       -6.0074929570       16.5627496109
  H        10.6190861615       -7.0824788487       16.3017345263
  O        24.0943860549        1.8926730996       13.4587919835
  H        24.0025817362        2.3590331570       12.5452770048
  H        24.7824092771        2.4463132987       13.8887848354
  O        20.4740333277       -5.2203459934       15.7751976804
  H        19.7844246309       -5.6194171409       16.4396264854
  H        20.7081883531       -4.3245783224       16.1049149997
  O        27.3810934517       -8.2782802195        5.6645379801
  H        26.5417515986       -8.5860898579        5.2680858695
  H        27.0827498633       -7.7372538055        6.4770742061
  O        13.5436103959       -8.7949203088        2.3724010851
  H        13.1158336132       -7.9816116879        1.9982179677
  H        13.1042592620       -9.0182641962        3.2554419462
  O        16.8966153529       -7.3971131707        1.1675165368
  H        16.9338030212       -8.3708843529        1.0911931018
  H        17.6952239606       -6.9923711037        0.7947141199
  N        18.4705084688       -2.2668879864       14.6777720129
  H        17.6097929345       -2.5696503686       15.1139151552
  H        18.2724682302       -1.9882858006       13.6547469627
  H        19.1728283755       -3.0141925270       14.8285915999
  H        18.8829223689       -1.4599493834       15.1993637128
