     194
 CELL 12.4294 12.4294 12.4294 90.0 90.0 90.0 i =    98820, time =    49410.000, E =     -1097.1153782385
  O        21.5908089607       -2.0197208241       14.3769202815
  H        21.7867932065       -2.7548458545       14.9369048865
  H        21.1016434064       -1.4013560464       14.9391689024
  O        26.9867978804      -11.6549642845       10.1211449510
  H        27.1602354038      -11.6615946125       11.1256308666
  H        26.8942741045      -12.5688417406        9.7205388118
  O        24.3247015257      -12.2682151067       17.6206525154
  H        25.0181245451      -11.6426286956       17.3790574435
  H        24.3508806768      -13.0254092732       16.9841523692
  O        19.2381601837       -4.7000638726       14.0800639871
  H        19.0964120696       -3.9628468301       14.7445603623
  H        19.6738450580       -4.2097136208       13.3342744466
  O        13.8486544569      -10.2829753254       17.0412876095
  H        14.6450653249      -10.3310612260       17.5834303378
  H        14.0311232066      -10.8446655123       16.1912082559
  O        31.5540900749       -7.6402063927       24.3681919915
  H        30.8567494468       -6.9352903388       24.5182987482
  H        31.2606379724       -8.4193634630       23.8404655223
  O        21.9196772897        1.0352948153        5.8016827644
  H        21.9621908597        2.0302576982        5.7485872536
  H        22.7863594225        0.7747153442        5.4467996321
  O        26.2561473432        0.2791102059       14.8008287504
  H        26.7425136286       -0.4982602115       15.1701650554
  H        25.3857923032       -0.1406027746       14.4811651752
  O        20.2443159097       -5.9631884181        6.1174240887
  H        19.4588465772       -6.1978792976        5.5959838350
  H        20.0410484147       -6.2572250181        6.9999416700
  O        23.8767128249       -3.9936432746       12.0365115686
  H        24.0616400056       -4.7816799799       12.5945570950
  H        24.1561788379       -3.2010762907       12.6088334389
  O        24.1505566806       -8.2014352093        7.7035838217
  H        24.8996351998       -8.0306356410        7.0393533626
  H        24.5034093794       -8.8210315231        8.4513795617
  O        18.6398926506       -1.9181798361       10.0350121393
  H        18.3459985917       -1.0064665642       10.1651038887
  H        19.0199225324       -2.2000480142       10.9068207799
  O        16.1523946316       -1.0247996180       16.2850122987
  H        15.7070808557       -0.9274901788       17.1228092310
  H        16.5692793320       -0.1117520571       16.1039784953
  O        27.7664422157      -11.2130967653       12.7085571886
  H        28.0750562740      -10.2545897478       12.7716647777
  H        27.1564205881      -11.4913363321       13.4357062608
  O        21.1280122664       -6.7206647490       13.9769294697
  H        21.3592067464       -6.7708624690       13.0157219684
  H        20.1993403551       -6.3252400858       14.0722664261
  O        29.5664562099       -1.2651823525       13.1970138612
  H        28.8850781474       -0.5645380781       13.1092026710
  H        29.4978332914       -1.5795705482       14.0418651512
  O        30.3834731317       -5.7339602643       16.9314475070
  H        30.6268446826       -5.2641599418       16.1604526388
  H        29.9587302164       -5.0502528217       17.5239545193
  O        28.6582510973        1.8345414978       18.6203892150
  H        28.5059621462        2.0918289636       19.5927545749
  H        28.4461780958        0.8134052721       18.7696402633
  O        24.9329428077        5.9897969325       10.1821559809
  H        24.2284492322        5.5558608424        9.6396662900
  H        24.7722931264        5.8563815965       11.1434863311
  O        17.1308450600      -10.8701978418       15.8091410484
  H        17.1147742543      -10.1724381189       16.5061421924
  H        16.9770001827      -10.4042815912       15.0100609716
  O        28.2912384530       -0.6225141897        6.7148388425
  H        27.6477212876       -0.8842756133        7.4360555170
  H        29.1814122180       -0.9739338842        6.9156742941
  O        23.3022234653        2.0670773932       13.6063764695
  H        23.0880994951        2.1716948889       12.6601675025
  H        23.6507024262        1.1587446406       13.5716267773
  O        29.2931115437       -3.9421240979       22.8691125862
  H        29.8767223090       -3.1631245257       22.7110109040
  H        29.2610739246       -4.4630647927       21.9967189583
  O        21.4426255850       -3.7184608209        4.6613823273
  H        20.5665386293       -3.3122634790        4.6022474451
  H        21.2520209002       -4.6013542294        5.0531601607
  O        22.1428720619       -2.6616686915        7.9117262666
  H        21.9413187722       -3.3412061404        8.6425027335
  H        21.7041441380       -3.0692217005        7.1079017563
  O        28.1281841290       -7.2216639434       15.8261966997
  H        28.9880924180       -6.7449213484       16.1292573250
  H        27.8174137262       -6.5362381711       15.2080859376
  O        31.8937012176      -11.8425908344       12.4456751236
  H        32.1753386570      -11.0506590840       13.0044678362
  H        31.4390831796      -12.4916607108       12.9721816839
  O        29.5462729389       -5.8794456265       20.6419736445
  H        30.2025681529       -6.6137273336       20.7029879284
  H        28.6389197733       -6.2817992969       20.8472753177
  O        21.6091685303       -7.0973799049       11.3934417040
  H        20.5718622872       -7.1687053242       11.3145721391
  H        21.9261997421       -8.0480507062       11.2396324485
  O        19.4026364236       -8.9413035913       16.4341128181
  H        19.8325940768       -9.4307802819       15.6914366578
  H        19.1734535136       -8.0377234092       16.0862214513
  O        17.2102524023       -5.7174104846       12.5745586356
  H        17.2216897705       -5.0576263919       11.7951407872
  H        17.8461590402       -5.2904149167       13.1542980179
  O        25.3604677938       -3.6544546911       21.8758163814
  H        25.3952930093       -4.4951994923       22.3506997127
  H        24.5100269347       -3.3059573090       22.2839235181
  O        24.6675320715       -6.2950770144       12.8966619878
  H        25.6292854900       -6.2966416237       13.1184747755
  H        24.3219008312       -6.9977223313       13.5574041035
  O        21.7068222070       -4.4317609427       10.4121826261
  H        21.8220605754       -5.3822529562       10.6932623073
  H        22.3395763316       -3.9920242337       11.0402668930
  O        36.1298908017       -1.1955492380       10.7794286230
  H        36.7888176239       -0.6059037748       10.3540583392
  H        35.2730085355       -0.7073866729       10.5655475744
  O        31.4135889598        2.3824867546        6.4612233227
  H        30.4942996530        2.0485338659        6.2694980437
  H        31.7804729822        2.7314493594        5.5918919436
  O        29.2648398615       -3.9962200447       18.5495976049
  H        29.2259894570       -4.5597426800       19.3575831420
  H        30.0300408615       -3.3477487021       18.8279359952
  O        30.7878234165       -9.4935869793       10.3229221033
  H        29.9798938513       -9.5455667423        9.7571380538
  H        31.0178532196      -10.3880711066       10.4572703371
  O        27.0926531904       -7.0992859184       20.9194203412
  H        26.4253730271       -6.7585888024       21.6046650722
  H        26.6186481177       -7.4100464085       20.1023977494
  O        28.1759440259       -9.6555077037        8.9915915695
  H        27.5908675280      -10.3000328962        9.4409018363
  H        27.7035087243       -8.8069862552        8.8661659590
  O        18.6967734608       -2.7016579273        3.8621567375
  H        17.8047469713       -2.6913104395        4.2473995881
  H        19.0000590471       -1.7978668359        3.9899103498
  O        25.4351638814       -3.2925010128       26.8819909983
  H        25.2490897567       -2.8657610845       27.7551728199
  H        25.9716583757       -2.7733343349       26.2579631398
  O        26.4409559450       -1.3731378561       21.1538779239
  H        26.1799748204       -2.2597382225       21.5407689905
  H        25.5491126363       -1.0178760720       20.8131314470
  O        20.2656310902        0.3762947043        7.7189686492
  H        21.1397494441        0.2868828244        7.2761788260
  H        19.8587895127        1.1376922400        7.2687244268
  O        23.9887338332       -0.4409280455       20.4567351364
  H        24.1277960916       -0.2006979322       19.5023690115
  H        23.2599261783       -1.0902803261       20.4207462941
  O        30.9257171483       -2.1753381225        7.2437054767
  H        31.6678036570       -1.5876322656        6.9676337812
  H        31.0393219455       -2.2319968764        8.2034719127
  O        27.0940057347       -3.1606110192       12.3381991909
  H        26.6533890395       -3.6114735214       11.6065017515
  H        28.0314136941       -3.0379284865       12.1848017568
  O        24.0934836794       -2.6629453128       16.9623740192
  H        23.2363739722       -3.0508367615       17.2245779512
  H        24.6562264935       -2.9226339528       17.7901001050
  O        20.1841280818       -0.3956962307       16.4055988243
  H        19.5930589452        0.2416080327       15.9209167740
  H        20.7906476708        0.1688463209       16.9501458053
  O        20.0044989311       -3.0891242291       12.1540671434
  H        20.4186504285       -3.5285171157       11.3620277045
  H        20.6857081188       -2.8441461021       12.8331176756
  O        34.9892144348       -9.9563038088       11.0081690485
  H        35.8609658800       -9.9486646739       10.3916648486
  H        34.5121170164      -10.7795100199       10.7783505426
  O        21.3602317244      -12.2953592353       10.2464036614
  H        20.8350116992      -12.0770229752        9.3864260345
  H        20.6842188280      -12.1824022678       10.9565823162
  O        14.7004479942       -5.6688629560       13.9259970750
  H        15.4759384562       -5.4125365057       13.3507232456
  H        14.3832781759       -4.8332129566       14.3916246558
  O        23.7523193873       -0.5519306974       13.6009804278
  H        23.6942598302       -0.6454216304       12.5984349987
  H        23.1501107290       -1.2257873773       13.9832305797
  O        24.7285723917        1.9850421635        9.3780703556
  H        24.2999943829        1.2834475397        8.8805117982
  H        25.5467126725        1.5346678318        9.7438232548
  O        25.1032620647       -8.5279131338       15.2274826364
  H        24.8874944764       -9.1306563181       14.4128386007
  H        25.3229514792       -9.0737795157       16.0225229566
  O        21.8404340119       -8.4309632427       18.3026487060
  H        22.5157702697       -8.4750713375       19.0170075353
  H        21.0885395554       -7.8525511977       18.6523462806
  O        13.6692609976       -7.0823553594       18.2798862263
  H        13.5998721080       -6.0965903275       18.4321344771
  H        14.1261071805       -7.2959334185       17.4346137621
  O        29.7912485221        0.4895522975       10.2403032206
  H        28.8251281851        0.6322757817       10.0951239503
  H        29.8740797471        0.5990850941       11.1975533425
  O        25.8419767185       -4.4052027585       18.8139276089
  H        25.6020917698       -4.2620497715       19.7798911918
  H        26.7602568934       -4.1151516660       18.7563807951
  O        31.7609481526       -7.8173756042        8.0240385989
  H        31.7438232234       -8.6987729437        7.5980020066
  H        31.9342909571       -8.0193655887        8.9313995450
  O        16.7038352930       -8.9681303094        1.5709968171
  H        17.3373494259       -8.3990547074        1.0169854098
  H        16.2615684164       -8.3032093685        2.2445054011
  O        20.4469280459       -9.9140341431        1.5437432537
  H        21.3873340244      -10.1284170313        1.5682728985
  H        20.4160169154       -8.9678760775        1.3139726577
  N        23.0206948065       -6.7686818576       16.2468485738
  H        23.6191232825       -5.9327728506       16.6390441198
  H        23.6210340099       -7.4534083106       15.6745995414
  H        22.2716071717       -6.3713276037       15.6059027473
  H        22.5092361729       -7.3423892052       17.0084171025
