     194
 CELL 12.4294 12.4294 12.4294 90.0 90.0 90.0 i =    90420, time =    45210.000, E =     -1097.1321907933
  O        19.0286566675       -0.0605293706       13.2810471902
  H        19.4056526319       -0.9435403112       13.1599644993
  H        19.8086016069        0.4754726247       13.0366403895
  O        23.2785000165      -11.0028003012        9.2418708560
  H        22.8346799623      -11.1023047786       10.1042804542
  H        24.1300719804      -11.5841345934        9.3296580846
  O        22.6863059253      -12.9514207579       13.6917096254
  H        22.0578403895      -12.5656010665       14.3470590151
  H        22.9322729785      -13.8504588176       13.9723676725
  O        16.2985592145       -3.7973868597       14.5786928647
  H        16.0493839721       -4.1936143430       15.3900824216
  H        17.0788426586       -3.2638850549       14.8710983207
  O        10.8811660577       -9.4426851755       16.3813330623
  H        11.2589222110       -9.8056436594       17.2207788782
  H        11.4885816752       -9.7719002867       15.6702915374
  O        28.7835739463       -7.7068102998       24.4606382876
  H        28.5784706258       -6.7056559308       24.4788522852
  H        27.8777845949       -8.0410554889       24.1805925405
  O        21.4547351130        0.9506742628        3.3846029336
  H        20.5790013082        1.4410413099        3.4603973871
  H        22.1555044106        1.6179694867        3.4926026664
  O        24.6493250248        1.6855731524       14.3844102313
  H        25.6034075436        1.3158415855       14.5360426283
  H        24.0822479311        0.8521899792       14.1308181206
  O        17.3595284522       -6.7256080248        4.4999845321
  H        17.0926319394       -7.0876425180        3.6128319958
  H        17.0525148819       -7.3430064829        5.1894322637
  O        21.9726138455       -3.9983493081       11.7477146745
  H        22.1987670796       -5.0108320115       11.8098062608
  H        22.8114148812       -3.5119027308       11.3755130895
  O        21.8375130765       -7.6386341171        6.1070550252
  H        22.6743210268       -7.5507145630        5.6156576805
  H        21.7786666864       -8.6344605392        6.1774285695
  O        17.7735788198       -0.9427205399        9.4837717080
  H        17.5580860494       -0.3152526845       10.1848897069
  H        18.0376476694       -1.7448752564        9.9524645035
  O        14.2559958114        0.1897976816       14.4402902975
  H        13.9583362706       -0.0823809876       15.3790682870
  H        15.1260076494        0.5739990602       14.6807089915
  O        24.2357079231       -8.4889308902       12.8090551227
  H        24.9782275761       -8.6899048327       12.1624181171
  H        24.1794670689       -9.2211913362       13.4793801264
  O        19.6711161266       -2.8109440113       13.0634450148
  H        20.4997709960       -2.9996795532       12.5399859946
  H        18.9007122705       -3.0820358277       12.4481057874
  O        26.1286904778       -1.8073629343       12.6988695390
  H        26.8611536621       -2.1004280709       12.0505326835
  H        26.4539004932       -1.2125171611       13.4059294808
  O        25.5324533276       -4.1690355301       14.5207893183
  H        25.9366425525       -3.4972403584       13.8518808165
  H        25.7109397528       -3.8149840185       15.4602417100
  O        24.8020004720        1.5172154679       18.2308540324
  H        24.3506251011        1.5372321755       19.0882639196
  H        25.6396017479        2.0124136639       18.3629977826
  O        22.5330510267        6.2373052885        8.5975413807
  H        22.1832649301        5.4203883184        8.1976895020
  H        22.4434974253        6.1224335923        9.5786038050
  O        16.4909626675      -10.8672786224       15.0385784630
  H        17.2142156327      -11.0383355650       14.4188517941
  H        16.3696727806       -9.8856790989       14.9567208735
  O        26.0699720657       -0.6699165853        4.4749155984
  H        25.3437435918       -0.1666316086        4.9190931188
  H        26.7963271617       -0.7180999440        5.1220519905
  O        20.6035174725        3.0015590314       12.9015279767
  H        21.3134980970        3.6457456548       13.0534055316
  H        21.0643990225        2.1944654959       12.4885780269
  O        27.3729521467       -2.5526350379       21.9191290584
  H        28.2030733649       -2.0263519252       21.9414767937
  H        27.4554249166       -3.4308824506       21.5767340327
  O        18.1960898388       -2.8193755061        4.6956601353
  H        18.1487751623       -1.8636217559        4.9788476627
  H        17.2964633378       -3.2911011477        4.7969818140
  O        20.2222630483       -2.9967099410        6.4213424075
  H        20.1024431574       -3.1482213467        7.3510240563
  H        19.2874418924       -3.1589813384        6.0173208540
  O        25.7292101473       -7.0607872354       14.8103040032
  H        25.8379787452       -6.0978532321       14.5421138448
  H        25.2020857053       -7.3831421236       14.0463206652
  O        29.9224511233      -11.5447474405       11.2968325268
  H        30.2761302379      -10.6277011093       11.0317433867
  H        30.4572435829      -11.8751715378       12.0950340982
  O        27.1527710092       -5.2656363979       21.3793301200
  H        27.8786157905       -5.9582938419       21.3691989747
  H        26.5128716980       -5.4951495177       20.6231989191
  O        16.9757877424       -6.6348465205        8.7902527437
  H        17.3113703499       -7.3088965792        9.4685659437
  H        17.7669475764       -6.2240967402        8.3748161561
  O        19.3593697787       -9.5863481561       15.6182404443
  H        19.9152586196       -9.4006826401       14.7809532607
  H        19.0820135738       -8.7499219138       15.9434667833
  O        15.6197692289       -4.9716182604       12.2992396815
  H        14.6850798604       -4.9996818651       12.0809655576
  H        15.7181952487       -4.4838261407       13.1650875887
  O        22.0646241494       -1.7958260378       21.1129873641
  H        21.3296764782       -2.4005177327       21.3709774261
  H        21.7318344488       -0.9042567655       21.2414806430
  O        22.8107129392       -6.5226931711       11.2774537704
  H        23.7330514860       -6.2084623047       11.3185981034
  H        22.9283337120       -7.4066109822       11.7381455761
  O        20.1804728610       -3.9570269177        9.5888555676
  H        20.0737410765       -4.8761050465        9.1136270289
  H        20.9305369637       -4.0974016839       10.1939054274
  O        32.5227226838        0.4689822046        8.9998206716
  H        32.7810020523        0.8042481500        8.1584047263
  H        31.6295847934        0.0257343872        8.9364488552
  O        27.0489692599        2.2723574647        6.9330881463
  H        26.3809494358        2.5247434750        7.6679636167
  H        27.3495698215        1.3319069686        7.0105294247
  O        25.6452872452       -3.4708329363       17.1467664418
  H        25.1018528495       -3.7711211991       17.8698139412
  H        25.6788200958       -2.5115759717       17.2192157202
  O        26.4415866833       -8.8083271743       11.1375165613
  H        26.1427378398       -8.5766465793       10.2340715081
  H        26.4997793754       -9.7466429014       11.2444001556
  O        25.1713006430       -6.4479446067       19.7359693556
  H        24.3280011303       -6.1388832736       20.2300339757
  H        24.9519205426       -6.5271551473       18.7887236694
  O        25.2252693115       -8.9537584598        8.5092188348
  H        24.3217101716       -9.2752986896        8.7977618714
  H        25.2220988582       -8.0231425049        8.1023970414
  O        16.0901614150       -4.3600825306        4.9027912289
  H        16.4213695315       -5.3117011726        4.9371692129
  H        15.1462732097       -4.2017564783        5.0497633238
  O        23.8369501146       -2.4060048447       23.1263748765
  H        24.1511693575       -1.6543900217       23.6863412654
  H        23.3882992837       -2.0330351250       22.2536199940
  O        23.6935519124       -2.2404407243       18.7688277000
  H        23.4944942090       -2.3059762481       19.7383962618
  H        23.0686705664       -1.4413509081       18.5550648693
  O        18.7636679208        2.3242396110        6.1541499895
  H        19.5208022137        2.7177319170        5.6948354778
  H        18.0089729575        3.0673167804        6.2697512869
  O        21.3202287659       -0.3500090520       18.3117650668
  H        21.2538697667       -0.0705204021       17.3547159586
  H        20.9965522088       -1.3034137534       18.3008632120
  O        28.3338487920       -0.3509408846        6.7760056712
  H        29.0263911581       -0.0891267272        6.1215252917
  H        28.8352407300       -0.6295166348        7.5681857609
  O        25.4939563052       -0.0860234204        9.4858762795
  H        26.0515575170        0.1332758570       10.2672683798
  H        26.0172062136       -0.8489155146        9.0049107694
  O        22.8656653935       -3.0986486302       14.2670895644
  H        22.6645208681       -3.5959316676       13.4317699879
  H        23.6334275185       -3.6415548519       14.6555186605
  O        17.9356559432        0.0016027031       17.3484107062
  H        17.5537843866        0.5083629223       16.5940790732
  H        18.3467318157        0.7137480393       17.8985839641
  O        17.7772950781       -3.6018080997       11.0755403970
  H        18.5359597655       -4.0970944002       10.6613048503
  H        17.0636843775       -4.2225988380       11.3734482884
  O        32.0626116237       -6.2753039570        8.0751571323
  H        32.5254367516       -6.0321422125        7.2457101090
  H        32.3365131210       -7.2481273330        8.2097139986
  O        19.9760328864       -9.0240175811        8.6240559432
  H        19.7028665960       -9.6552842719        7.9174962003
  H        19.4634624631       -9.3770472158        9.4477689836
  O        13.0280146007       -5.2794400717       11.0477276132
  H        13.6697036080       -5.5985328591       10.2644180152
  H        12.8971549877       -4.3548096348       10.8330815102
  O        21.7290516753        0.8852146739       11.5815336086
  H        21.0018940764        0.5562359426       11.0245055907
  H        22.1291555297        0.2154672076       12.1225966830
  O        22.0143054464        2.1718694154        6.8353439976
  H        21.8610925508        1.2429295186        6.5126306368
  H        22.4768007357        2.1030292675        7.6961092166
  O        22.0846881216       -7.5302672179       14.6491426383
  H        22.7057393981       -6.9544856475       14.2053356179
  H        22.6435199302       -8.0015081475       15.3294130056
  O        20.1609324774       -6.0711783787       16.8377407104
  H        20.7403417514       -6.7968425100       17.1850178284
  H        19.3210555937       -6.2614528837       17.2940860505
  O        12.0034132246       -6.3894351229       17.2319156464
  H        11.2329604294       -5.8917419389       17.1641484359
  H        12.2875088344       -6.7466018084       16.3946053107
  O        26.9981550129        0.7915089511       11.6657821548
  H        26.9426550081        0.7416024356       12.6820036254
  H        27.9701554850        0.8824479850       11.5258466581
  O        22.4086810332       -4.6136983329       17.6397305942
  H        21.5891037118       -4.6852415877       18.2098058204
  H        22.9143759627       -3.8253408100       18.0470100158
  O        29.1819941725       -8.4343474107        6.4991883092
  H        28.4454985990       -9.1076778823        6.5399177258
  H        29.1920780287       -7.9197316051        7.3514602059
  O        15.8827652757       -8.1532170015        2.3957767538
  H        15.9827628261       -8.1770115442        1.4050801083
  H        14.9578107140       -7.8358872631        2.4650364932
  O        18.4584515029       -9.0674514288       -1.4275625241
  H        19.2088963845       -9.1870052112       -0.7641368457
  H        17.8437560985       -8.5333658454       -0.8434230020
  N        20.5031019279       -3.6740925899       15.5417567294
  H        19.8507370578       -3.3414849663       16.3227655508
  H        20.2233023520       -3.4941826982       14.5320693892
  H        20.5105535677       -4.7217911108       15.8126005616
  H        21.3678481362       -3.1990723411       15.7186468286
