     194
 CELL 12.4294 12.4294 12.4294 90.0 90.0 90.0 i =    48020, time =    24010.000, E =     -1097.1378418634
  O        -0.2903942055        1.5104729084       10.0225987507
  H        -0.5929614625        0.9916311212        9.2159354412
  H         0.5212109984        2.1098729870        9.9223447399
  O         6.4310883490       -9.6019259046        8.0280048102
  H         5.9900686058       -9.0201537181        7.3802577552
  H         5.6929216681      -10.1035210994        8.4764628556
  O         2.9396556289      -10.4215665226       10.1190406324
  H         3.3706781482       -9.5816480558       10.2466822779
  H         3.7093619685      -10.9128753141        9.7469720395
  O        -2.0452637756       -2.1231731643       11.9840586433
  H        -2.0580407809       -3.0594775992       12.4298931227
  H        -2.2631077909       -1.4609936669       12.6616673290
  O        -7.8741867037       -8.5413731419       11.1567659158
  H        -7.8641115868       -8.7656553328       12.1190720613
  H        -6.9287531200       -8.3807980819       10.8811486504
  O         4.9830168994       -3.5350727150       18.8315589150
  H         4.7451311343       -3.8631191531       17.9255754362
  H         5.9727823057       -3.5120423706       18.8363844984
  O         2.1043008173        1.8115538386        0.5904673239
  H         2.0613350910        2.7928496772        0.7127668589
  H         2.5093452968        1.7601857863       -0.2824573232
  O         7.0194256813        4.2966659630       10.1413037511
  H         6.8199856323        3.8340074690        9.2743854982
  H         7.3322746609        5.2226000198       10.0911964711
  O         0.1883746904       -3.6438849785        1.6330353254
  H        -0.1193177931       -4.5557483436        1.6159520255
  H         0.0838394367       -3.3897594038        2.6191713713
  O         3.6667255054       -0.8650437511        6.5546351032
  H         2.7868697603       -0.9842367802        7.0652318757
  H         4.0186080543       -1.8070299571        6.7033071526
  O         4.2860407531       -6.1439995856        2.4327131439
  H         5.0185890721       -5.7928591998        1.8483157696
  H         4.8050839766       -6.8105544930        3.0267737559
  O        -0.0810420673        3.8820695410        7.1295821694
  H         0.0823134900        4.6359331702        6.5563562189
  H        -0.7917924257        3.3143193053        6.7589063084
  O        -4.3446057891        0.3820742589       13.0307291258
  H        -5.2734013307        0.5592789074       13.2802881373
  H        -3.9660929166        1.2775719590       12.7518777162
  O         3.6367808332       -5.5733867355        7.5501417504
  H         4.2034889283       -4.8292140959        7.2904886846
  H         3.3430635971       -5.4482884999        8.4909308324
  O         1.3897799436       -1.4516949953        7.8586641952
  H         0.9642612711       -2.3594000064        7.7562857287
  H         1.8392201632       -1.5048549160        8.8027920703
  O         7.3033408237       -0.6720360083       10.7079012156
  H         8.0423554066       -1.0584464467       10.2161158998
  H         7.7930339150       -0.2548109880       11.4799303822
  O         5.5841449956       -4.2723611664       11.0655033357
  H         4.9374447377       -4.7247680405       10.5288918149
  H         5.2761264241       -3.3052760588       11.1855256627
  O         4.9211678598        2.8571226019       13.9559153274
  H         5.7407325505        3.4099114429       14.0788447431
  H         4.5815675329        2.8562461875       14.8774172993
  O         4.5758615305        4.3297224644        6.5838660216
  H         3.8412645236        3.5759405537        6.7363305950
  H         4.1727358731        5.0576952417        7.1141463190
  O        -0.9270533489       -9.1320095424       12.7690592762
  H        -0.0972933032       -9.5839574288       12.5191179029
  H        -1.6953990151       -9.5403658928       12.2305518964
  O         5.2038439771        0.1674597604        1.2580428152
  H         5.2754872672       -0.1363293052        2.1897201060
  H         4.8810672265        1.0707423114        1.2512331049
  O         0.1286932513        7.0727265791       10.2952666300
  H         1.0924748672        7.1359420595       10.3847924793
  H        -0.0711033355        6.1310033939       10.0517401433
  O         9.2801710561       -1.7371814049       15.7547445595
  H         8.4810666852       -1.9340268933       15.1312989216
  H         9.7752884351       -1.0388918073       15.2510686188
  O        -1.2839107710       -0.1746681776        2.2635082807
  H        -0.9707099173        0.3097747913        3.0142192045
  H        -0.6452623171       -0.8462490094        1.9676467463
  O        -0.3108443865        1.4697445741        4.3519691575
  H         0.2786273738        0.8667247873        4.8556709888
  H         0.3103616251        2.2318765317        4.0019138841
  O         8.0578583462       -5.6378151120       10.4033447217
  H         8.3266737293       -5.6237124885        9.4353122838
  H         7.2620909246       -5.0479150392       10.4745433024
  O        11.3678298901       -7.8350231418        9.3362094273
  H        11.4413140089       -8.4475293951       10.0857683070
  H        12.0311350000       -8.1480818078        8.6403543606
  O         7.3030702849       -2.3906689428       14.0082444774
  H         6.3282640856       -2.3322916382       14.3473477409
  H         7.2929483227       -1.9732835017       13.1341156775
  O        -2.2994114550       -4.5138263833        6.1387090411
  H        -2.6375735271       -5.3509582121        6.4368726692
  H        -1.7934799554       -4.2860786752        6.9483009612
  O         1.6889433927       -7.7241232740       13.8509419609
  H         2.5241030083       -7.1953483124       13.9525752226
  H         0.9168318710       -7.1048897930       13.7109586300
  O        -3.2710147430       -2.0094239547        9.0089981846
  H        -3.7141501050       -2.5237504264        8.3083006832
  H        -2.7951346996       -2.6615422490        9.5291376782
  O         2.2292478067       -0.7498878528       14.3204135279
  H         2.6436257868        0.1177750558       14.0327895653
  H         2.0198495470       -0.7067595827       15.3588395941
  O         1.7507680048       -4.7642427056        5.9160526682
  H         1.2919636506       -5.4299472560        5.3654631819
  H         2.2664901944       -5.2602134475        6.5991425656
  O         1.3096987301       -1.0570382172        4.4753897149
  H         0.7358372624       -1.8380856432        4.4624366938
  H         1.9982947866       -1.1982866419        5.1354428569
  O        15.8142773664        2.0861468363        4.7388676172
  H        15.4637132378        2.0397688895        5.6617339101
  H        16.5750163676        1.4911014187        4.5459851477
  O         9.9035983355        2.9586460653        2.8449107219
  H        10.1538183900        2.2043337973        3.4305798194
  H        10.4838682087        2.9114108282        2.0581844752
  O         8.9015091591       -5.0142215459       15.2576320015
  H         9.1085165103       -4.7227853520       14.3675192603
  H         8.8174740917       -4.2347727029       15.8488370246
  O         9.2854913647       -6.5311117831        8.0635207445
  H         8.8320438480       -7.2427691102        7.5399677772
  H         9.9199004713       -7.0938035549        8.6319821956
  O         3.6087072711       -3.9015345286       16.7602982926
  H         3.8359967545       -4.6954584294       16.2783098955
  H         2.8577186104       -4.1254499332       17.3637986440
  O         8.2270962908       -8.2461535345        5.8458385988
  H         8.8161910288       -9.0439558955        5.9704798770
  H         8.8373016186       -7.5786908602        5.3924964458
  O        -2.7473802955       -4.9144394151        0.1598201179
  H        -1.9211531263       -5.4547940327        0.2410070908
  H        -3.3608700717       -5.1930106719       -0.5939563815
  O         5.3645503343       -0.3881366769       16.4915754683
  H         6.2169342134       -0.2567869070       16.9440019209
  H         4.7021951397       -0.5940306864       17.2002472213
  O         4.2833764007       -2.6817869110       14.3604302891
  H         4.0857008463       -2.9770703773       15.2728008995
  H         3.5736149476       -2.0302690374       14.2409643585
  O         0.2633419359        5.6053301411        4.8822296210
  H        -0.6719165584        5.5158433116        4.4711185294
  H         0.7778061383        4.8211234072        4.5441974821
  O         5.1204985159       -1.6326194688       11.4389488306
  H         5.0758532293       -1.0321414579       12.1956391024
  H         5.9394921506       -1.3018329943       11.0966835112
  O        10.3602845121        2.1519199438        6.4325352918
  H        10.9087581671        1.8770998351        5.6994876665
  H        10.3526538183        1.2921643571        6.9685068467
  O         7.8326271005       -0.6927113362        5.2462362629
  H         7.9991761263        0.1987252111        5.5036694481
  H         8.5603914349       -1.0737289076        4.5834179488
  O         4.7893727269        0.4824679770        8.7820831758
  H         4.5016756640       -0.0954307952        7.9950361190
  H         5.4364199382       -0.0876712053        9.2140149081
  O         1.3356456963        3.3547228667       16.0958708037
  H         1.5463650780        3.8724533532       15.2551961456
  H         2.2385358471        2.9516034276       16.3918852035
  O        -1.4316023623       -0.1616931808        7.8707661663
  H        -0.6183241777       -0.5912431892        7.7932109663
  H        -1.9960557933       -0.8828396623        8.2414873817
  O        11.6827840602       -2.9544632538        4.2271224123
  H        11.2218608825       -3.7809999763        4.6067086903
  H        10.9485919419       -2.3275081558        4.1267645886
  O        -0.2780739273       -3.7231155252        7.8646711566
  H        -0.1623502832       -4.3262497577        8.6339555601
  H         0.1750619906       -4.0921661786        7.0426317008
  O        -4.6385802343       -2.9570745287        6.6973922821
  H        -3.9273597229       -3.3707659051        6.2207611856
  H        -4.6564589596       -2.0149786916        6.2807521690
  O         2.1971937922        2.3978777797        7.0466090059
  H         1.2528520343        2.7281859113        7.0066619708
  H         2.3727148233        2.0795312258        8.0100456404
  O         6.0545454238        4.0292584816        4.1405267493
  H         6.8714084069        3.9829957511        4.7179143081
  H         5.3195051420        4.1622334575        4.7950206297
  O         3.2096230965       -6.0636288984       10.5787708063
  H         3.1054944435       -5.4472802179       11.3613786756
  H         3.6986885871       -6.8486935886       10.9079960202
  O         2.9855600008       -4.1426849848       12.5255202776
  H         3.7131489347       -3.7655986968       13.1061995145
  H         2.2512832733       -4.0733572718       13.1278696945
  O        -5.8213781167       -5.2923352568       13.4213094891
  H        -6.1978086562       -4.9308939347       12.6043828624
  H        -5.2957251239       -4.5671821294       13.8195843015
  O         8.7441975895        3.0469395926       11.9662925085
  H         8.1356143789        3.3583725610       11.2316569231
  H         8.3926892904        3.5026182425       12.7725931648
  O         2.6712594053       -2.0560646298       10.3917493714
  H         2.6799993235       -2.8567244718       10.9269480998
  H         3.5830688862       -1.8565972239       10.6518899812
  O        10.0879244209       -6.9670836196        4.2371682643
  H         9.9921053672       -7.7091984450        3.5767146746
  H         9.6960572725       -6.2060703446        3.6664675701
  O        -4.8851288742       -7.9344250442        1.3812873796
  H        -4.9334426582       -6.9659405111        1.2823216060
  H        -4.9453204318       -8.0633008900        2.3643500209
  O        -0.4358436688       -6.4498610526        0.5984573307
  H        -0.7063643469       -7.3869623293        0.3072249576
  H         0.0088329886       -5.9422048021       -0.1595920673
  N         0.6939903094       -0.7123740087       11.7763500864
  H         0.2338186443        0.0324145615       11.2799421861
  H         1.4765796914       -1.1476379196       11.1480518478
  H        -0.0183092889       -1.4036462769       11.9419078462
  H         1.0624383992       -0.5099004755       12.6881156030
