     194
 CELL 12.4294 12.4294 12.4294 90.0 90.0 90.0 i =    68820, time =    34410.000, E =     -1097.1744276896
  O        10.6315226695        0.6601540082       10.8991561821
  H        10.8602890693       -0.3226193176       10.7642735524
  H        11.4531487332        1.2187372874       10.9946818472
  O        15.0929176057       -8.5552233356        8.9219299476
  H        14.5357582987       -7.7545427893        9.0365735831
  H        14.7179790333       -9.2686387814        8.3099831055
  O        13.1885997338      -10.4267746075       10.6487810151
  H        13.6049509787      -10.0035905930       11.4397710867
  H        13.7898483652      -11.1593611756       10.3022035884
  O         7.2426045037       -2.5863178461       13.3104134654
  H         6.7638950949       -3.3135720753       13.7595246884
  H         6.5632077624       -1.9019605346       13.0329413813
  O         1.9289376445       -9.0668961874       12.7704826118
  H         2.3221273061       -9.7218066190       13.4170668539
  H         2.6726484719       -8.8057998620       12.1720929713
  O        16.8269347040       -5.6548668949       22.7297070693
  H        17.2806403378       -6.2879825019       22.0769075814
  H        16.8588448900       -4.7567812514       22.3025077648
  O        12.3858551267       -0.2420165917        2.5729674963
  H        12.0908876892        0.6631649982        2.7259549875
  H        13.2725191699       -0.1392222782        2.2855562816
  O        16.5671358296        3.6659834733       11.1574777410
  H        16.1908298660        3.6735292111       10.1869584943
  H        17.0997956185        4.4293146204       11.4210471453
  O         8.4503529508       -6.5579792577        2.7215152798
  H         8.8226448396       -7.3577849340        2.2708117079
  H         8.3405992624       -6.7877524611        3.6741417731
  O        13.1358283516       -2.1668176868        8.8115136672
  H        12.5407219414       -2.4298448780        9.5040004501
  H        13.3697454160       -2.8399902167        8.1204709539
  O        14.1251145153       -9.4140669990        4.5720563815
  H        14.7626058804       -8.6687138067        4.2648682449
  H        14.3594367717       -9.7365412036        5.4862657337
  O         9.4519948811        1.8639288552        8.6541063159
  H         8.9638291170        1.3413269126        7.9595599098
  H         9.7176681346        1.1336486005        9.2615117937
  O         5.2505385510       -0.6938628623       13.2343281301
  H         4.9471242982       -0.7453157686       14.1831132795
  H         5.2835671557        0.3307192330       13.0336166594
  O        14.0159839064       -6.1146799350        9.9762097823
  H        14.9657009997       -5.9095311973       10.1863602244
  H        13.6675137030       -6.2113209545       10.9031865932
  O        11.3856679036       -1.8337397268       10.7848957395
  H        10.7619685267       -2.4726152489       10.3852274345
  H        11.5179806248       -2.2237266950       11.6519367874
  O        16.0692613777       -2.0489089355       11.5605170931
  H        16.4299314733       -2.5552782131       10.7824382523
  H        16.7698258511       -1.6193345713       12.0707325420
  O        14.3984818138       -5.4765151304       14.5737867392
  H        13.8545985690       -5.8076697721       13.7779216335
  H        14.5875222032       -4.5646597373       14.3257842666
  O        14.9230804806        1.6084752925       14.9835302736
  H        15.9320295713        1.7230264095       14.8797939008
  H        14.7986115152        2.0642215772       15.8748826913
  O        12.9148335168        4.7519222453        6.9697677600
  H        12.5903218255        4.1577038936        6.2339276396
  H        12.4376456968        4.4110556239        7.8093508822
  O         8.6049326250      -11.0137381695       12.9517094501
  H         9.1851698335      -11.3265805941       12.1849937907
  H         7.6780967790      -11.0407440740       12.5659542988
  O        15.7688965764       -1.0225573859        3.0399409370
  H        15.7812925611       -1.3090384869        3.9889209694
  H        15.4012580011       -0.0970780809        3.0900488512
  O        10.3174832143        4.7024767435       11.4589501310
  H        10.9399995149        4.2925609651       10.7937895658
  H         9.4263478664        4.3320717084       11.3354540332
  O        18.6025111588       -1.1330203425       20.3384963835
  H        19.4278136210       -0.9653030631       20.9095712563
  H        18.7179573699       -1.8839417250       19.7167905509
  O         6.1414849936       -3.1875665499        6.0639826426
  H         6.6034288776       -2.8779863889        5.2464438869
  H         6.6951354334       -3.9721289317        6.3784737327
  O         9.0468659745       -2.7207556747        4.4885829956
  H         9.7306047830       -3.3938599449        4.6443425215
  H         9.2720264290       -2.2676183729        5.2741966017
  O        17.2346021888       -6.4587093315       12.7848916340
  H        16.9207548686       -5.9472979024       12.0498220406
  H        16.4890129724       -6.4881310056       13.4221225714
  O        20.3015138356       -8.7841391499       10.0508607300
  H        19.5966295368       -9.3407635052       10.4111552090
  H        20.8420942280       -9.5088487665        9.5241125423
  O        14.9504555573       -3.5217575366       19.8614488057
  H        15.2393169093       -3.0688648475       18.9931499158
  H        15.0503143369       -4.4538508321       19.7289243890
  O         7.5548569387       -5.1815705323        7.3878900338
  H         6.9891691014       -5.7715393590        7.9603993270
  H         8.3357705154       -5.0293630680        7.9058987121
  O        11.5970033703      -10.1617342682       15.8964771203
  H        12.4964496804       -9.6987950339       16.0365101532
  H        11.1621573370       -9.6578487683       15.1524887781
  O         8.7824576847       -3.1559591332       10.8177257881
  H         9.0222601838       -4.0264946462       10.4760227818
  H         8.5368004732       -3.2694950139       11.7921976938
  O        12.2837333686       -2.1096642806       16.9779573908
  H        12.3113544903       -1.4257661293       16.2331421140
  H        11.4996324462       -1.7654035767       17.4542640795
  O        12.1854735028       -4.8236502924        8.3698222495
  H        12.3154612260       -5.1825363534        7.5148988503
  H        12.9724008365       -5.2654290398        8.9295946776
  O        10.0969212901       -2.5901978079        7.4325918939
  H         9.9918505271       -3.5201736377        7.2464503736
  H        10.8539246201       -2.4487933743        8.0640238456
  O        24.5814704629        0.1225908627        7.6557813682
  H        24.1935913100        0.5838682985        8.4647715594
  H        24.9838709323       -0.6988200033        8.0394652850
  O        19.0880862619        2.9561904708        5.3053187162
  H        18.2202923711        3.1074595241        5.8410266505
  H        19.4919100048        2.1170306439        5.5784308926
  O        17.5495003258       -5.8683669388       16.8201703141
  H        17.9583988357       -5.5144718652       16.0124764246
  H        17.6047902769       -5.1401235360       17.4628496440
  O        18.3891346257       -7.2180822327        8.4204649305
  H        17.8059435882       -7.6891166383        7.7554222367
  H        19.1187817719       -7.7200733274        8.8936916889
  O        14.8084425531       -6.0724888123       18.5462292592
  H        14.2680378866       -6.7373466873       19.0122622875
  H        14.1711904630       -5.5829711104       17.9897597650
  O        16.7812668923       -8.2353821469        6.4974210398
  H        16.1916538655       -8.4346132992        7.3124278016
  H        16.1635254759       -7.5494271427        6.1609582412
  O         6.3997859997       -4.9675638337        2.1005575372
  H         7.1671482095       -5.5791781860        2.2250963240
  H         5.7790156228       -5.3845829368        1.5369913850
  O        15.2476457420       -1.5565275573       17.9475772323
  H        15.4294524646       -0.9517082975       18.7383697146
  H        14.2841739716       -1.4601424702       17.7643652087
  O        12.9016900358       -4.8288750725       16.7055943479
  H        13.5664983186       -4.8841214393       15.9313616990
  H        12.7198886757       -3.8444959840       16.8686696122
  O        10.4079673251        2.9108896451        5.9259384154
  H        10.5203751829        3.1142214714        4.9283649513
  H         9.4809618988        3.2183529767        6.1310502163
  O        14.4252630073       -2.8418414366       13.7854570673
  H        14.7940506956       -2.1271605316       14.4518117041
  H        15.0818325317       -2.7450311396       13.0289515430
  O        20.4008949906        0.8298602100        6.4656440917
  H        21.2270327768        0.4921874085        5.9790447056
  H        19.8985861058        0.0226728769        6.6733399873
  O        16.0551853054       -0.2367717204        7.7333264791
  H        15.5009850652       -0.3645083852        8.6442506962
  H        16.9903221380       -0.4958631085        7.8100274257
  O        14.6742964495       -0.2543839539       10.0566302153
  H        14.1256300650       -0.9616919290        9.5915764671
  H        15.1073781939       -0.7385120153       10.8230604086
  O        10.3718254100        0.0240815045       17.9212902990
  H        10.7612110742        0.6915178758       17.3455305553
  H        10.9655048529        0.1172557575       18.7144888057
  O         8.6062964579       -1.0237722047        9.0778936649
  H         9.0265288601       -1.6217326111        8.3508983125
  H         8.4424126996       -1.5175924284        9.9036032188
  O        22.8872136210       -5.1045980091        5.5320561449
  H        23.6883249681       -5.5523450868        5.2179946196
  H        22.1390276712       -5.7347851366        5.4346227941
  O         9.9548156976       -5.4190507214        9.5759537829
  H        10.0671560499       -6.0958692927       10.2694904631
  H        10.8646715586       -5.2056683759        9.1860026017
  O         4.5782377152       -3.1918357389        9.1961557379
  H         3.9130752551       -3.1891118456        8.5170485676
  H         5.1899633668       -2.5896763086        8.7591170762
  O        11.9233578065        3.6989580588        9.0999681141
  H        11.4100517689        3.0764038021        8.5413791700
  H        12.5266920310        3.0630784325        9.6268510890
  O        14.6037399932        1.8820281158        6.9676416495
  H        13.7679335456        1.4545254818        7.3340186436
  H        15.3320375352        1.1594293471        7.0951814703
  O        12.9892759023       -6.6405180547       12.5710043129
  H        12.1280417400       -6.3352597832       12.8620560998
  H        13.0437166431       -7.5207937336       12.9719482867
  O        11.0991309276       -5.4908019931       14.4235295430
  H        11.7379408781       -5.3552442771       15.1608945339
  H        10.3367491098       -5.8957786175       14.8751986840
  O         3.4088167094       -7.6122369793       15.8268335538
  H         2.8796399006       -6.9471089978       15.2863532463
  H         3.9038190153       -6.9951706730       16.4237438860
  O        18.1282152396        1.8729937091       12.6430306742
  H        17.5663757538        2.4357193431       12.0263591573
  H        18.1159018915        2.3762998202       13.4883490639
  O        11.6174921113       -3.0874639022       13.3026876488
  H        11.2024495179       -3.9875628337       13.5782890443
  H        12.5844026469       -3.1334862974       13.4669074071
  O        20.9202761609       -7.0868253538        5.4934635861
  H        20.2178399768       -7.7385527867        5.3690764384
  H        20.5691234306       -6.5845310484        6.2592786373
  O         5.1698262022       -9.5291735651        2.7031670076
  H         4.4916443405       -8.7744761760        2.8007868333
  H         5.7800514342       -9.4301165310        3.4832751429
  O         9.9181414983       -8.7982798329        1.5025577041
  H         9.3521654932       -9.6384952784        1.2896895229
  H        10.2586615602       -8.5447256446        0.6373784254
  N         9.5950211674       -1.3529383891       14.3806033120
  H         9.5770424694       -0.3602462298       14.1935029065
  H        10.4082849126       -1.8028302793       13.8850809747
  H         8.6737878255       -1.7910902112       14.2413695772
  H         9.8110363742       -1.4002360483       15.4103757348
