     194
 CELL 12.4294 12.4294 12.4294 90.0 90.0 90.0 i =    64020, time =    32010.000, E =     -1097.1712770092
  O         8.0726174787        0.7296583193       10.9141007710
  H         8.1180522134       -0.2725985344       11.0254327357
  H         8.9534551376        1.0333906236       11.2499112317
  O        13.3203060663       -9.0753919802        9.2075369085
  H        12.6358573230       -8.2043215321        9.2237969028
  H        12.7312782606       -9.7581298754        9.4923867074
  O        10.8528463081      -10.7059487244       11.4217074185
  H        11.3343386424      -10.2430323534       12.1192131589
  H        11.5135222844      -11.1734147559       10.8588319347
  O         5.3345181315       -2.5032534910       13.0127063152
  H         5.1247080444       -3.3583098309       13.5325801551
  H         4.5448853759       -1.8453161776       13.0892351146
  O        -0.2446584675       -9.2332083585       13.1085113841
  H        -0.1071017988       -9.6501575430       14.0437794383
  H         0.6526704841       -9.1498649350       12.6524247790
  O        14.7803854692       -5.5656829372       22.0119762179
  H        15.4046141654       -5.9386719243       21.3179335775
  H        14.9199087189       -4.5882589406       21.9148053213
  O        10.2038395013        0.2673376278        1.9765966396
  H        10.2262573638        1.2809724127        2.2594018358
  H        10.5470157751        0.3281517173        1.0884061813
  O        14.7338397181        3.6334401737       11.6326021885
  H        14.2311739346        3.5583947185       10.7537298051
  H        14.9273585123        4.6080249308       11.8024906550
  O         6.7201158836       -6.5445514609        2.4042072317
  H         7.0851488205       -7.4076722792        1.9709710643
  H         6.3935210272       -6.7414352324        3.2934013828
  O        10.9833309007       -1.2262001167        8.7367611829
  H        10.5510235898       -1.3342699844        9.6137618276
  H        11.4998293871       -2.0713499848        8.6056377168
  O        11.3457475682       -7.4416272637        3.9293710625
  H        12.2950831468       -7.4318936206        3.6366674217
  H        11.3703625444       -7.8894120276        4.8263455920
  O         7.0359736643        2.1967185353        8.7167226112
  H         6.7542173177        2.0209289149        7.7558368182
  H         7.0791017035        1.3487793264        9.2349435307
  O         3.3802110248       -0.6000726027       13.3339712682
  H         2.8052131744       -0.7712731155       14.1195696717
  H         3.6307282223        0.4077663107       13.4422540522
  O        12.0560306674       -6.6864763499        9.9470781459
  H        12.8805656659       -6.1974784928        9.9873110437
  H        11.6691503933       -6.7004572431       10.8697868271
  O         8.9496027823       -1.9835669026       10.6050532935
  H         8.4373673712       -2.5795861120       10.0468886666
  H         8.9619686339       -2.4996135894       11.5091491764
  O        14.0458449328       -1.2395535039       11.2287632645
  H        14.6284649219       -1.7839072044       10.5603360373
  H        14.7473730418       -0.8973125125       11.9071327513
  O        13.1234550056       -4.8823466401       13.3125769274
  H        12.3689206984       -5.4723024882       12.9680236258
  H        12.6375139478       -4.0511769258       13.2291379524
  O        12.8209355152        1.8595060064       15.4674209247
  H        13.7353453399        2.2713461356       15.7051199075
  H        12.3838505645        1.9826410600       16.3204512670
  O        10.3234523184        5.3196700082        7.0214337411
  H         9.4827421158        5.2143965546        6.4633376130
  H        10.1895547660        4.7570375957        7.8020167643
  O         6.5458598103      -10.9613433499       13.0784672352
  H         6.9557840088      -11.2892419660       12.2505376250
  H         5.6817868663      -10.5296157212       12.9378206331
  O        13.7370218104       -1.0403490459        2.7491855464
  H        14.0035278420       -1.3009234496        3.7251982802
  H        13.3072729264       -0.1679025133        2.7374035826
  O         8.3577608905        5.3087971678       10.9217853307
  H         9.0153844168        4.8345698422       10.2974323062
  H         7.4623107132        4.9544821667       10.6612271600
  O        16.4555415071       -1.0711241969       19.5743223076
  H        17.2432980568       -0.9381197908       20.0787379833
  H        16.7568172338       -1.8333462205       18.9178000776
  O         5.0793246875       -3.0592275024        5.5433047366
  H         5.7388164125       -2.5198799287        5.0889424104
  H         5.5886322853       -3.6755214298        6.1528442466
  O         7.1336655986       -1.5464325382        4.4704195960
  H         7.6226649923       -2.3830865988        4.5880380960
  H         7.6705154622       -0.9296828546        5.0358994516
  O        15.1746876011       -6.0974414225       12.3766757895
  H        15.2216402745       -5.7795652106       11.4274335276
  H        14.2630772205       -5.7085800600       12.7369468656
  O        18.2733539680       -8.2794407452       10.3578813269
  H        18.0598190402       -8.8273183403       11.1330431912
  H        18.6085218692       -9.0086673195        9.7550409956
  O        12.6088788694       -3.6335246638       19.9147539220
  H        12.9304666464       -3.1646070855       19.0928805876
  H        13.2113229546       -4.3426485965       20.2287546797
  O         6.4894522752       -5.1330516294        7.0451016502
  H         5.7760383153       -5.7586222437        7.2092065318
  H         6.9404445885       -5.0069231814        7.9133892318
  O         9.6989980886       -9.6745845933       15.5179459391
  H        10.3901875372       -9.0624745877       15.8833985969
  H         9.1254932573       -9.2177832487       14.7963302778
  O         5.7389951943       -2.9034060432       10.5062842282
  H         6.3827327493       -3.6665890506       10.3512975086
  H         5.5498334191       -2.8129256271       11.5103843534
  O        10.9445811350       -1.3513429060       16.4187247216
  H        10.9279201539       -0.7001556963       15.6926050476
  H        10.3013062181       -1.0743884495       17.0702943785
  O        10.0949344221       -4.4918666026        7.9532156514
  H        10.1593536742       -5.4639128351        7.7706711139
  H        11.0251460004       -4.1880991004        7.8630682345
  O         8.7020470388       -2.0074750941        6.9677827330
  H         8.8909726901       -2.9647645997        6.9901859842
  H         9.5304943289       -1.6106397523        7.3494478592
  O        22.6384064040        1.6781437533        7.3000550617
  H        22.2672597840        2.3862447308        7.9643479169
  H        23.1807013226        1.0374344890        7.7847162571
  O        16.7452983094        3.3481272995        5.1236369461
  H        15.8948639500        3.2861190098        5.7305158007
  H        17.3489626246        2.6859428265        5.4523637444
  O        16.2722227420       -5.1600907658       16.3852038111
  H        16.7918618488       -5.0171726809       15.5834435705
  H        16.5021957572       -4.4124003939       17.0085871926
  O        16.9324518835       -6.9611204512        8.1653596983
  H        16.3482727566       -7.5810577152        7.6764458050
  H        17.2144215450       -7.4553980026        9.0063853798
  O        13.2037639544       -5.9741613704       18.5300037381
  H        12.2810027432       -6.2521546314       18.8470975930
  H        13.3378844234       -6.3188631386       17.6497309772
  O        14.6233167893       -8.6085660685        6.8790314359
  H        14.2320504518       -8.8366982368        7.7823108301
  H        14.3338221462       -7.6732282950        6.6308039140
  O         4.7669868929       -5.0051762432        1.4872986946
  H         5.4254827119       -5.7817402770        1.5959414562
  H         4.0760687709       -5.3313602502        0.8272563171
  O        13.2334855200       -1.8763116921       17.9531356991
  H        13.3055729417       -1.0399517697       18.5428509022
  H        12.5144592126       -1.6533785687       17.3204574357
  O        10.8700860785       -4.8907796804       16.2558251008
  H        11.2612594817       -5.7513616006       16.5261874251
  H        11.2036779075       -4.1932720605       16.8838119911
  O         7.7285590447        4.2214168979        6.0826422623
  H         7.8264350058        3.6220716813        5.3283600294
  H         7.1064133282        4.9329644125        5.8123624237
  O        12.0406377102       -2.1868307048       13.0672298574
  H        12.5201958718       -1.9668710704       13.9488599425
  H        12.6608459790       -1.7834749866       12.4012756069
  O        18.3244792771        1.3965081537        5.9584916737
  H        19.2124141068        1.1861130870        5.5493057499
  H        17.7663325931        0.5520984047        5.8938754009
  O        14.0267388280        0.4373220186        6.9154716103
  H        13.8351486460        0.4255411174        7.9406775327
  H        14.8856264442       -0.0641250514        6.8890210983
  O        12.9694525158        0.4542860234        9.5190367687
  H        12.2285857926       -0.0896437969        9.1091731295
  H        13.3001678994       -0.1801509598       10.2481688152
  O         8.4996407525        0.8940407557       17.4228485707
  H         8.9328698425        1.4426096341       16.7371390663
  H         9.0693847766        1.0891194129       18.2414974611
  O         6.5196756311       -0.8426911097        8.7138746246
  H         7.2357673427       -1.2929786777        8.2221836948
  H         6.2322534488       -1.3803302497        9.4491603971
  O        20.5553583376       -4.0372960638        4.6457784571
  H        21.3829456968       -4.3139005746        4.1835694159
  H        19.9113043142       -4.8148319587        4.6199362699
  O         7.9573488963       -4.5792891551        9.5245520363
  H         8.3541001259       -5.3162408779       10.0781248317
  H         8.6945532486       -4.4291143844        8.8723884947
  O         3.2077593219       -2.8223441447        9.4389261869
  H         3.2713852582       -2.5260019059        8.5043226699
  H         4.1624746180       -2.7610279237        9.8125142770
  O         9.4059664190        3.2562121262        9.2399884994
  H         8.4439393121        2.9743061441        9.2367165891
  H         9.8457366163        2.7830933392        9.9495498410
  O        12.1222440659        3.0427526041        5.4707655728
  H        11.7409536894        2.7853073491        6.4172427197
  H        13.0915130478        3.1743629855        5.7974270410
  O        11.1843922108       -6.6650580255       12.6985471447
  H        10.4017458474       -6.5492005739       13.2874087136
  H        11.6459400226       -7.4523065569       13.0074633172
  O         9.1650991121       -5.6774455133       14.2904074993
  H         9.6634378164       -5.5567643169       15.1176079489
  H         8.2143346409       -5.9554005193       14.6135612562
  O         1.5279273303       -6.4328986815       15.5888845721
  H         1.1695399245       -5.7379823301       14.9531283172
  H         2.3136598405       -5.9729181989       15.9517958332
  O        16.4320981912        2.1604348255       12.9237467862
  H        15.8460425742        2.6725535667       12.2356975212
  H        16.2997115068        2.7141640374       13.7171905832
  O         9.2206635631       -2.7986296118       13.3543660871
  H         9.0746677489       -3.7312429624       13.6142576989
  H        10.1671791527       -2.5672975770       13.5332385677
  O        18.1790667161       -6.8235339099        4.8720663979
  H        17.5173392837       -7.5527014887        4.8854473801
  H        17.5638452972       -6.0437933076        4.8928628550
  O         2.8491711487       -8.9640223443        2.7842471381
  H         2.4025163325       -8.0949135160        2.7043521711
  H         3.4621766008       -8.9827617805        3.6033395385
  O         8.0400965924       -8.6555254535        1.0296175454
  H         7.6176240384       -9.4322537989        0.5993374994
  H         8.5540563263       -8.2107565905        0.3195282156
  N         7.3470975990       -0.8737258134       14.3234417423
  H         7.3138135038        0.1027389500       13.9522788507
  H         8.0496167067       -1.3897964834       13.8424203248
  H         6.4060457237       -1.1654662356       14.0317156952
  H         7.4399180286       -0.9306014446       15.3509247915
