     194
 CELL 12.4294 12.4294 12.4294 90.0 90.0 90.0 i =    50820, time =    25410.000, E =     -1097.1328336579
  O         1.4896906558        1.3845566711       10.7808482281
  H         1.0836366614        0.9605272452        9.9792853673
  H         2.4325654967        1.6062551944       10.4948007752
  O         7.4772430640       -9.3343537931        8.7577636807
  H         6.5672133753       -8.7918088928        8.5909254933
  H         7.2787404910      -10.2569087171        8.5802808140
  O         4.2380024051      -10.3131582898       10.6097153334
  H         4.8357228683       -9.5045925061       10.7318216386
  H         4.9011210027      -11.0809396319       10.3784490070
  O        -1.0116016233       -2.3674563988       12.1781433626
  H        -1.2935453718       -3.3194770881       12.3640728369
  H        -1.7945220672       -1.7987175186       12.4207243736
  O        -6.5643172661       -8.3667247394       12.0852034954
  H        -6.5894645188       -8.7597060999       12.9807537899
  H        -5.6132083165       -8.2828321638       11.8769224739
  O         6.2904104923       -3.4552082085       19.8224098117
  H         5.9018383492       -3.6341411707       18.9133716214
  H         7.2691887628       -3.4650465390       19.7952306351
  O         3.1710634961        1.4269576723        1.0477877414
  H         3.1490010064        1.9345796251        1.9075460472
  H         3.5596666856        1.9615378794        0.3543783429
  O         8.2258504749        4.1757406917       11.0290414008
  H         8.1919744407        3.7403636951       10.1176700341
  H         8.6732895132        5.0427636835       11.0235299924
  O         1.3155850127       -3.4246269510        1.8302915973
  H         0.7103853400       -3.9640314133        1.2551836507
  H         1.2102325923       -3.6740178361        2.7921933708
  O         5.0305826021       -1.1328950121        7.1923479526
  H         4.1982151851       -1.3719873757        7.6793236621
  H         5.6383769833       -1.9307198013        7.3108730247
  O         5.5402637547       -6.0105503881        3.6322902146
  H         6.3747914689       -5.8583164274        3.1232204135
  H         5.6618163834       -6.8086168018        4.1457793348
  O         0.7578635121        3.4118688235        7.1625727637
  H         1.1294600682        4.1618885740        6.5966965560
  H         0.1918376723        2.8311937370        6.5822024435
  O        -2.7382536180        0.1054796242       12.6867797085
  H        -3.5006085719       -0.0587764632       13.2595734048
  H        -2.5845676376        1.0823676679       12.8471932142
  O         4.7508246955       -5.3830950810        8.5436820908
  H         5.4758314792       -4.7791853888        8.4110666234
  H         4.3974749293       -5.2283296093        9.5134171197
  O         2.6502059332       -1.9683907095        8.4729526216
  H         2.0737719016       -2.7254027880        8.2650564472
  H         3.1347149571       -2.1671761181        9.3470827932
  O         8.2398923491       -0.7050622970       10.3410237647
  H         8.9899594054       -1.1024308286        9.8063332245
  H         8.6044681372       -0.1305421120       11.0161652262
  O         6.7402673158       -5.2313188655       12.0775392956
  H         5.9556164282       -5.7245829683       11.6936921851
  H         6.4099007737       -4.2974207574       12.1083259317
  O         6.2541415438        2.2593315487       14.1776774887
  H         7.0232258969        2.6571238418       14.5990854142
  H         5.6448508132        1.9509498527       14.8958956244
  O         5.2961403068        4.5184646896        8.4420240858
  H         4.5228332931        3.9624414929        8.1552657472
  H         4.9912776696        5.4833777578        8.3673316225
  O        -0.0978852551       -9.0563751220       11.2767294659
  H         0.5188354643       -9.8523897812       11.2381718042
  H        -0.8546202647       -9.3719851318       11.8207295382
  O         7.1284355126       -0.3163366871        1.5974189449
  H         7.0714414366       -0.4670491022        2.5806116379
  H         6.6783583799        0.5487913276        1.4577225479
  O         1.5438718762        6.6536868912       10.4625505084
  H         2.4702617596        6.4152842864       10.5401179085
  H         1.0418295442        5.9510940763        9.8583258563
  O        10.0193157082       -2.1171731846       15.6854870325
  H         9.1154771506       -2.3245255020       15.2036676340
  H        10.4446462108       -1.3328104772       15.2027170675
  O        -0.4527936381       -0.6773266690        2.0854658389
  H        -0.0049638079        0.0576445486        2.5753331367
  H         0.0227380277       -1.5756094981        1.9820957723
  O         1.0648813661        0.8616349542        4.0147003810
  H         1.7864433623        0.3186452680        4.4727196779
  H         1.4344850658        1.7766179730        3.8034376740
  O         9.3148780735       -5.6826357228       10.7835430139
  H         9.3944635676       -5.4778832794        9.8203671229
  H         8.5039525942       -5.3047376676       11.1865100518
  O        12.5145455045       -7.4280873251        9.2461666539
  H        12.4664793447       -8.0322805768       10.0963524608
  H        12.7650542646       -8.1333124131        8.5606389220
  O         7.9346422405       -3.3856925441       14.1024255710
  H         7.0948801621       -3.4335128412       14.6288515590
  H         7.5985508420       -3.2189446724       13.2098124006
  O        -0.7038845730       -4.7293206527        5.8215532677
  H        -1.0115986213       -5.2595784387        5.1178260438
  H        -1.1054270832       -5.0817322816        6.6833464234
  O         3.5592160146       -7.2173712007       14.4281162055
  H         4.0060019453       -6.5788560192       14.9741250373
  H         2.8091144543       -6.8388180784       13.9113777557
  O        -1.8608324564       -1.9657416257        9.2947606919
  H        -2.0668883723       -2.7859798553        8.7964752664
  H        -1.3517553043       -2.2355672540       10.0971426308
  O         3.5818965010       -0.9339365207       14.6426997223
  H         3.6236402856       -0.0834701793       14.1160169120
  H         3.0473554365       -0.8747897512       15.5027512139
  O         2.8506292378       -5.2614757631        6.5302989229
  H         2.5164797270       -6.0795051489        6.0258636027
  H         3.5642981850       -5.4990534909        7.2138311909
  O         2.6776296187       -1.0972033137        4.8969126832
  H         2.2057881513       -2.0225439670        4.8763105709
  H         3.4778078647       -1.1836065873        5.4710082668
  O        17.6067484245        1.8070168804        5.2234724462
  H        16.8606274291        1.7752030720        5.8371578206
  H        17.8615600925        0.8515072223        5.1645223007
  O        10.4795762270        3.6856045725        5.0770305324
  H         9.9028732659        4.0242736535        5.8824726387
  H        10.7053982821        2.7857475586        5.4052338702
  O        10.0023334719       -5.0328610570       15.3068377359
  H        10.4204514325       -5.0354271834       14.4230238051
  H        10.0383529592       -4.1242813474       15.6586121568
  O        10.3213936016       -5.9014505810        8.0525054456
  H         9.7073188989       -6.5013920557        7.5865004764
  H        11.0101720714       -6.5081053281        8.4047059005
  O         4.9630498119       -3.7376499245       17.5230647417
  H         5.2659294304       -4.6316127646       17.2392627967
  H         4.1095562871       -3.9922886387       17.9218468306
  O         8.5359875751       -7.5503934374        7.1004740764
  H         8.2084023342       -8.2151435828        7.7765959432
  H         7.7450623525       -7.4745604366        6.4328533246
  O        -1.2196906734       -5.1514771398        0.4762983224
  H        -0.4233345068       -5.7802823604        0.5156111703
  H        -1.6978722322       -5.4888059711       -0.3959531791
  O         6.8931979708       -0.6657792117       16.9037098427
  H         7.7235618460       -0.9652666092       17.3783579224
  H         6.1279133901       -1.1953054994       17.2431308613
  O         5.2246864705       -3.1461762698       14.7610959052
  H         5.0974598907       -3.3632007006       15.6891325413
  H         4.7136942903       -2.2064473638       14.7474923616
  O         1.6717325477        5.0718534454        5.2748902637
  H         0.9068508343        5.3236268429        4.6460875473
  H         2.2659960661        4.4283088476        4.6497524311
  O         6.4179776078       -2.0857134104       11.7536935541
  H         6.4022336863       -1.4720153012       12.5365546983
  H         7.0968952331       -1.6756187843       11.0881590363
  O        11.6182976268        1.2863445680        5.8587613926
  H        12.2308567117        1.1133512679        5.1008439528
  H        12.0769560316        0.7574858835        6.6193723429
  O         9.6226441058       -1.0001376449        5.7235949517
  H        10.2187449309       -0.3228608916        6.0760068117
  H         9.8313383804       -1.5367052575        4.8932070186
  O         5.9471583320        0.4626693437        9.2836187487
  H         5.7121167128       -0.0760165836        8.5426316710
  H         6.7808267113       -0.0123463526        9.6757868292
  O         3.2368326277        2.9871403446       16.1654518103
  H         3.4952505471        3.6389900864       15.4753990909
  H         4.0286143639        2.5501069266       16.4507179765
  O         0.4980712997       -0.1490508638        8.5936608878
  H         1.3556632265       -0.7221508724        8.5362872731
  H        -0.2672352422       -0.7625786814        8.6086616826
  O        13.8862083217       -3.4958870451        4.6674805512
  H        14.3066409655       -4.2364215559        5.0764372376
  H        12.9331904435       -3.6880157188        4.9681613062
  O         1.0112214245       -3.9915878146        8.1864298780
  H         1.0048441919       -4.4904762516        8.9662465113
  H         1.4076843845       -4.5459652000        7.4585531697
  O        -3.1819274665       -3.2635996576        7.4394969045
  H        -2.6731044822       -3.9805126341        6.9912218970
  H        -2.9818188385       -2.3960639005        6.8982670366
  O         3.4394290955        1.9484935535        7.4304852342
  H         2.5268751725        2.3808414341        7.3639179048
  H         3.7379784467        1.9893550440        8.3527062309
  O         6.4464136347        4.1860525028        5.1078072370
  H         5.9851775462        3.3767420653        5.4338522341
  H         6.8842761833        3.8053100776        4.3002158429
  O         4.2662053515       -6.2985648508       11.4608550458
  H         4.1293884248       -5.8724693631       12.3572604231
  H         4.6321567311       -7.1996268886       11.7145729623
  O         3.7034148052       -4.2006070819       12.9514450762
  H         4.2330427231       -3.7304126917       13.6653107201
  H         2.7954362561       -4.0088594962       13.4113641287
  O        -4.6547691332       -6.2268928834       14.6295867031
  H        -4.9271142483       -5.8647232697       13.6662409770
  H        -3.9353516702       -5.6031377184       14.9913799822
  O         9.9348367330        2.6844638740       12.6581906817
  H         9.3190847120        3.1385585675       12.0242882604
  H         9.7432263730        3.1336015167       13.5617495284
  O         3.9163346153       -2.5021152397       10.8126711253
  H         3.7200713574       -3.0634381758       11.5762388560
  H         4.8012669369       -2.1614191612       11.0537868786
  O        12.0223893457       -7.1461478840        3.6216965429
  H        11.4487883760       -7.8099840813        4.0776081572
  H        11.5055287364       -6.3979607878        3.3144328341
  O        -3.8277721780       -8.7834173935        2.7899011541
  H        -4.0269344384       -7.8111597150        2.6186636007
  H        -3.1155230526       -8.7740656958        3.4780311442
  O         1.1279035458       -6.7056942757        0.6101210993
  H         0.7810364207       -7.6356873020        0.4085452657
  H         1.3722600108       -6.4266603104       -0.3575227414
  N         1.7294577747       -1.0697023807       12.1948730315
  H         1.8652477948       -0.0316454685       11.8183416416
  H         2.2599095216       -1.5736424971       11.5753647750
  H         0.6982923618       -1.3094950438       12.0714018378
  H         2.1168248533       -1.3172660898       13.1119548782
