     194
 CELL 12.4294 12.4294 12.4294 90.0 90.0 90.0 i =    60020, time =    30010.000, E =     -1097.1781424914
  O         6.3817512860        0.9830223580       11.6006110976
  H         6.1992403733        0.3732384991       10.8544198667
  H         7.3794431159        1.1517598995       11.5917839246
  O        10.9488892647       -8.6488668486        8.9272243024
  H        10.1965798665       -8.1074396954        9.1698283786
  H        10.5790496367       -9.5527571816        8.7040125533
  O         9.0789368066      -10.7263002430       11.3237857571
  H         9.2933265647      -10.0739631083       12.0186234851
  H         9.9451694701      -11.1189917673       11.1857229559
  O         3.4221391159       -1.9527590455       12.0176710488
  H         3.0363224133       -2.7844025840       12.3137392925
  H         2.8774533273       -1.2555243668       12.4019309035
  O        -2.1696026077       -9.0366767940       13.3762911748
  H        -1.9147016528       -9.7026043612       14.0058682920
  H        -1.5063360546       -8.9619057437       12.6512792666
  O        10.3413488449       -4.3833661837       21.2861618548
  H        10.5849386641       -4.5643553037       20.3475381355
  H        11.1787288950       -4.1775030913       21.7765107155
  O         8.6143229306        0.4726236482        1.7708190477
  H         8.2376098357        1.1702598013        2.2328545109
  H         9.3244974528        1.0229643816        1.3523620944
  O        12.2851216189        4.1227313847       11.3501373143
  H        12.0462549510        3.8292926583       10.4403194267
  H        12.6516145379        5.0105538158       11.4123400502
  O         4.9683881538       -5.8772029663        2.3573564205
  H         5.2345609071       -6.5939640133        1.7367434800
  H         4.4493404127       -6.3321779557        3.0350146134
  O         9.4845335547       -1.7656168205        8.7241036816
  H         8.8299544695       -1.8585373490        9.5179432129
  H        10.0427573629       -2.5681218383        8.8710950180
  O         9.6120909800       -7.5539238911        3.9941488753
  H        10.4776582144       -7.1150060892        3.7074736060
  H         9.8696438826       -8.1703444859        4.6592996090
  O         5.4045772388        2.3934510081        7.9291065137
  H         4.6742237997        2.3063999423        7.2088424155
  H         5.3302407040        1.4851170492        8.3676038965
  O         1.6630411248        0.0671885289       12.6303755709
  H         1.3531602792       -0.1056866800       13.5919844780
  H         1.7133131114        1.0132225695       12.6535314804
  O         9.0953725006       -6.9177851927        9.8885943872
  H         9.3595778699       -6.0525892388        9.5442878840
  H         9.3101873998       -6.8370953774       10.8266826523
  O         7.5487760031       -2.1514078694       10.6881541610
  H         6.7948079525       -2.7186528948       10.4235333829
  H         7.8329178450       -2.5826646035       11.5485558086
  O        12.2635078898       -0.8632704742       10.8698354649
  H        12.4666331317       -1.7882652361       10.6296658679
  H        12.9578019987       -0.5347850624       11.4740537766
  O        11.3244058595       -4.8826884256       12.6601906070
  H        10.6256069497       -5.6683668723       12.6207286471
  H        10.8084688646       -4.0735750375       12.8044516526
  O        11.5552404039        1.6808997852       15.0379830155
  H        12.3005770750        2.3650165691       15.0264652635
  H        10.9231044973        2.0522366402       15.7691607910
  O         8.2979556807        5.4209490519        7.3257438484
  H         7.7204462159        5.2662099418        6.5259317774
  H         8.3907882776        4.5695133440        7.7338700644
  O         4.2601890909       -9.4359084376       11.5312844432
  H         4.8312467787      -10.2085446528       11.7360522681
  H         3.4111651339       -9.7087981047       12.0423004341
  O        12.7008048418       -0.6477322024        2.5456905010
  H        12.9301960875       -0.9783398186        3.4733311771
  H        12.1696636780        0.1611417534        2.6922951940
  O         6.2575206063        5.8245873673       10.5756318191
  H         7.0640684331        5.7784998121        9.9886026339
  H         5.5136936349        5.3524375779       10.0761653723
  O        14.8113525188       -0.4596788938       19.6965355311
  H        15.1684537708       -1.0846399404       20.3801297582
  H        14.5829627905       -1.1099643119       18.9565015396
  O         2.5138579697       -2.5648413072        4.9829265141
  H         3.3904512469       -2.2366357290        4.6232383159
  H         2.7034202930       -3.0898622848        5.8645387708
  O         5.1320544221       -1.6144148932        3.7735018557
  H         5.6168241167       -2.4051414319        4.0347311809
  H         5.6658774914       -0.8865819331        4.1142164930
  O        13.5400872317       -5.8545117911       11.4655259326
  H        13.9113432065       -5.7874014464       10.5461771722
  H        12.8767449675       -5.1040742380       11.4906604568
  O        16.8101062431       -7.8812665085        9.3297709926
  H        16.5377310876       -8.5229996206       10.0333887036
  H        17.2904968195       -8.4931649732        8.6960616469
  O        13.0220785016       -3.6575225480       19.4849671957
  H        12.7197654393       -2.8788440448       18.9406605833
  H        12.2983851913       -4.3369229072       19.2232089124
  O         3.7049142425       -4.4071340652        6.7421119792
  H         3.6481188989       -5.0810781333        6.0717996013
  H         3.1822024949       -4.7104586648        7.4940723594
  O         7.6263095669       -9.5202173638       15.2053350109
  H         8.1900859288       -8.7948074402       15.5450524100
  H         7.0338990581       -9.1798107984       14.5322364683
  O         3.4763394699       -1.9250834941        9.3970887331
  H         3.9378984157       -2.7949609302        9.3343957491
  H         3.3939951982       -1.8489159833       10.3478985890
  O         9.5332694974       -1.5679054427       16.1631203344
  H         9.1916983727       -0.9179230353       15.4924668500
  H         8.8886740935       -1.5217750412       16.9284283778
  O         7.3429471427       -4.4854914941        8.2328522493
  H         7.4581899854       -5.3559759060        7.8813682130
  H         8.2526094051       -4.2889037091        8.6250446528
  O         8.1016954649       -1.5560004911        6.4602748979
  H         7.2876228545       -2.2242873990        6.2414008542
  H         8.4812862253       -1.7242467023        7.3509193468
  O        20.6160825288        1.0607197858        6.2374187254
  H        20.7292787813        1.4845884151        7.1213255920
  H        20.4642846434        0.0833566985        6.2803578267
  O        14.3769096222        3.6167824106        5.1537121781
  H        13.8937053205        3.9809403800        5.8992065749
  H        14.9479079017        2.8402767320        5.4783330557
  O        14.2827155930       -4.5742573533       15.7657222879
  H        14.7513532906       -4.2986335587       14.8773054602
  H        14.5435072117       -3.8429848526       16.4208131141
  O        14.6173772174       -5.8746904798        8.7959674094
  H        14.0628182683       -6.3627412097        8.1005708329
  H        15.3472330591       -6.5363153440        9.0233506571
  O        10.5633049374       -5.4375095130       18.8855459324
  H         9.8962777994       -6.1307901119       19.0962073401
  H        10.1268120844       -4.8503928262       18.1427542263
  O        12.8072983154       -7.3660440350        7.1319897170
  H        12.2330963132       -7.8318334367        7.7480775763
  H        12.0635984734       -6.7367329105        6.8866551976
  O         2.9548800652       -4.5940520351        0.8086113616
  H         3.6524513171       -5.2185560290        1.0629917555
  H         2.3637055516       -5.1478515335        0.2061367301
  O        11.9897677482       -1.0911650176       17.9867204267
  H        11.8700226633       -0.1896269540       18.3410864236
  H        11.2964169626       -1.1297294267       17.2926988281
  O         9.9441728616       -4.2615692240       16.7357733026
  H        10.6485295978       -4.7305797917       16.1753130500
  H        10.0560462822       -3.2768233503       16.4897378698
  O         7.0398077073        6.1511904449        4.8149263285
  H         6.1471495073        6.2272313705        4.3753477062
  H         7.6129979031        5.6278054295        4.2713948987
  O        10.9161575918       -1.8844606561       13.2630393293
  H        11.5817972482       -1.6907736066       13.9537472046
  H        11.2245837354       -1.4249136226       12.4768591523
  O        16.1143317272        1.6606253472        5.8416301359
  H        16.9655000946        1.5234291689        5.4290391961
  H        15.8575455609        0.8381154271        6.2392223420
  O        12.2417770022        1.2503440830        6.6577403905
  H        11.6941709570        0.8309287292        7.3726158809
  H        13.1650801784        1.0120226617        7.0076453251
  O        10.7643991812        0.5554774371        9.0236013387
  H        10.2908513166       -0.2566757724        8.7447625338
  H        11.5168440597        0.2875345828        9.5590165273
  O         5.9566139840        1.0064241145       16.8972860971
  H         6.3941969348        1.5754149551       16.1995694413
  H         6.6139216210        1.0657935044       17.6162501249
  O         5.5999684868       -0.2966456568        9.3600770166
  H         6.3863301326       -0.6667125606        8.9632477882
  H         4.7559672540       -0.8188954105        9.2822739996
  O        18.6809949511       -3.4906742847        5.5218383602
  H        19.3722734927       -4.2117927610        5.4758439596
  H        18.0001028497       -3.9512815059        6.0736057072
  O         5.3739558158       -3.9776632669        9.8735012886
  H         5.4014342795       -4.8201435098       10.4303849738
  H         6.0678016575       -4.1925783864        9.1766498586
  O         0.6368745792       -3.2999047514        9.9075690150
  H         0.7975950191       -3.5139077714        8.9369377614
  H         1.5161297018       -3.2532909131       10.2744880857
  O         8.1366884872        2.7917923567        8.4704787422
  H         7.1027110357        2.7349871677        8.3862918218
  H         8.2943780037        2.4954226481        9.3799212155
  O        10.2431811793        2.4361978345        4.9940031443
  H         9.4834230236        1.8190569235        5.1686869806
  H        10.9857370625        2.2710470059        5.6029153092
  O         9.2859946021       -6.6322052200       12.8010819588
  H         8.6752437015       -6.0333540393       13.3289879979
  H         9.5214001934       -7.4089407361       13.3817749612
  O         7.8955256357       -5.1359601899       14.5403321796
  H         8.3750397156       -4.8359972861       15.3159644905
  H         6.9085064084       -5.2098271372       14.7174134231
  O        -0.5321964267       -5.7368239597       15.2581957029
  H        -0.5617411149       -5.4437165389       14.3003636269
  H         0.3589650909       -5.4426018727       15.6026045447
  O        14.2464759384        2.8415729259       12.8417403186
  H        13.7767806638        3.3018550476       12.1565794016
  H        13.9454298518        3.1874695945       13.6939404315
  O         8.3751970412       -2.8362933261       13.0654662664
  H         8.3302236369       -3.6938108036       13.5136602055
  H         9.1762314805       -2.3650256384       13.4011001296
  O        15.9098808519       -6.2298760946        4.7406640537
  H        15.4511651271       -7.0928562719        4.8654085481
  H        15.2325162983       -5.7657043896        4.1996917506
  O         0.8660815989       -8.4856017924        2.7372642565
  H         0.4017941418       -7.6272796389        2.6711024382
  H         1.2757894610       -8.6940022997        3.6198333360
  O         5.9832500577       -7.9981199239        0.7104051380
  H         5.3340630296       -8.5047722076        0.1807726309
  H         6.4104267940       -7.5203579226       -0.0748011820
  N         5.8530255593       -1.2371944906       13.3331291297
  H         6.1803441267       -0.3610095129       12.7853677325
  H         6.6914896178       -1.9015064247       13.4729503282
  H         5.1037228580       -1.7100757209       12.8518014947
  H         5.5084204446       -0.9912083466       14.3041538226
