     194
 CELL 12.4294 12.4294 12.4294 90.0 90.0 90.0 i =    81620, time =    40810.000, E =     -1097.1269458077
  O        16.2032870364        0.7368525353       11.7448625242
  H        16.5117705107       -0.1525221572       11.5399765763
  H        17.0036711768        1.2673451585       11.9333896259
  O        21.5761147573      -10.8750376262        9.2058573763
  H        20.8589909003      -11.0758947170        9.8314245047
  H        22.0187904110      -11.7271086966        9.0792760503
  O        19.4443295859      -10.8006810953       11.4466565956
  H        19.8711816991      -10.3256508006       12.1634373524
  H        19.3696747232      -11.7705737685       11.7600123639
  O        13.1580107556       -3.2124576138       13.5068097515
  H        12.9943441303       -3.8329031180       14.2677721317
  H        12.4403288587       -2.4905426701       13.5335617544
  O         7.8824036276       -8.6353647090       13.4145168278
  H         8.6027855856       -8.8447605513       14.0739328405
  H         8.4661390893       -8.1238675950       12.8004920664
  O        24.8499807344       -6.9231336568       24.8197425887
  H        25.7931077193       -6.5769026308       24.9370789547
  H        24.7310209552       -7.3166702770       23.8840847016
  O        17.5091313786       -0.2041704809        2.7927965578
  H        17.6087201392        0.5491686216        3.4000239246
  H        17.9433698197        0.0295727017        1.9228386560
  O        23.2626683711        2.8384085658       10.8579669193
  H        22.7651033717        2.4046987359       10.1432351373
  H        23.1192898105        3.8191957148       10.7357164373
  O        14.5384582365       -7.0341400155        3.1896487173
  H        14.9206240045       -7.5696600396        2.4441864727
  H        14.1617161214       -7.7558702108        3.8163219067
  O        18.7050768795       -2.8971572128       10.2251764889
  H        18.9554384221       -3.7098567087       10.6482944100
  H        19.3281386667       -2.6505577712        9.4530434328
  O        19.1907851548       -7.7903377390        4.2582695848
  H        19.6261749875       -7.0580535215        3.7941796321
  H        19.8000733097       -8.5565934822        4.3615037226
  O        14.6948747846        0.5479934835        8.9859535542
  H        14.3477664197       -0.3906945400        8.6967875868
  H        15.0780754005        0.4482245657        9.9227549055
  O        11.2114340504       -1.2523385835       13.2331358916
  H        10.7038955384       -1.2903644649       14.1011031165
  H        11.4897804821       -0.3123287113       13.1274138634
  O        21.0300257461       -6.2503992396       11.2741728022
  H        21.9748671846       -5.9475268600       11.0433059054
  H        20.5922771703       -5.5381919357       11.8575531741
  O        16.1707911212       -1.9007566200       11.2429963306
  H        16.9576999257       -2.3688196474       10.8989606925
  H        15.4545096634       -1.9824569216       10.5834872991
  O        22.2530793919       -2.4609252488       10.8959263379
  H        22.6715408902       -3.3460121669       10.7543260592
  H        22.8303351386       -1.9623858420       11.5039960649
  O        20.8737267237       -4.2107310034       13.1347104238
  H        20.2400830633       -3.7144864833       13.6572719272
  H        21.3091732591       -3.5592096621       12.5220588059
  O        20.7417676674        0.3829077684       14.1032472741
  H        20.5683686950        0.7441417963       15.0122416107
  H        21.6302408114        0.7354687894       13.9415042111
  O        18.9798206746        5.4127994985        9.5376227526
  H        18.6610677672        4.4612111033        9.7553438124
  H        19.6688762009        5.7184008270       10.2570850472
  O        14.6044239592      -11.2790840799       13.8353286285
  H        15.1653854986      -11.4314042774       13.0192543130
  H        13.8002658440      -11.0316104686       13.4010287494
  O        22.4012717592       -1.9196363225        3.2633700021
  H        21.4662255481       -1.8120001994        3.1520943693
  H        22.5433285536       -1.1626281738        3.8765785195
  O        15.3135991268        4.1897327247       11.0910356253
  H        16.2303708683        3.9449288934       10.7883363878
  H        14.7074003726        3.6427429798       10.6004506294
  O        24.4248440674       -2.1569582533       19.3843946083
  H        25.2688678019       -2.1146564618       19.8724643248
  H        24.4059508582       -2.9891158559       18.8868361525
  O        14.3032741779       -2.7937958785        4.5848046586
  H        14.0915210012       -1.8357119405        4.3587362780
  H        13.8696336162       -3.1885649153        3.8252699989
  O        17.1475269483       -2.3639428382        5.3291479498
  H        17.2156743707       -2.5041146885        6.3411067500
  H        16.2921200337       -2.7291149323        5.1297092573
  O        22.7372770003       -5.9101767560       14.1158614540
  H        23.4109424983       -6.1648762501       13.4366123127
  H        22.0954578685       -5.2463727106       13.7721222803
  O        25.8532492670       -9.6477664315        9.7760702390
  H        25.1829127708       -9.8597857742       10.5114512337
  H        26.0552887280      -10.5018689452        9.3504932713
  O        22.1524929084       -4.8049191928       20.1899993959
  H        22.8636750239       -4.8232472960       19.4831492800
  H        21.7635487027       -5.7545104778       20.0235757188
  O        13.0785233021       -5.7854408835        6.7897656397
  H        12.9546886967       -6.4452190939        7.5197333740
  H        13.9653366108       -5.4217654553        6.8651753458
  O        17.3353307560       -9.7195626416       15.9354836895
  H        18.0328523119       -9.0516722506       16.0478489989
  H        16.6111674543       -9.4700301778       15.3115198747
  O        13.6548981843       -3.9497499308       10.6333822757
  H        14.2238143527       -4.7591779650       10.8739358482
  H        13.2658328616       -3.6843294568       11.4909983726
  O        18.7252679378       -0.1051427724       18.2379904572
  H        18.0427042650       -0.7510863865       17.8346158975
  H        18.1703398358        0.2807549130       18.9582150779
  O        18.4312106276       -5.3356887564       11.5962621401
  H        18.2461370947       -5.9355646908       10.8322630092
  H        18.4818346492       -5.9998716361       12.3371569865
  O        16.6126808694       -3.1288921040        8.0726245687
  H        16.6285595329       -4.1116376799        8.3216535266
  H        17.4292767241       -2.8109540054        8.4758879530
  O        29.5423757290        1.3291150881        7.7417966422
  H        28.9461645557        1.7791476112        7.0896266201
  H        28.8512272898        0.6964377105        8.0285606528
  O        23.6146822414        2.9685946625        4.9662464448
  H        23.0630118697        3.2827413635        5.7454760913
  H        23.6433955979        1.9554019455        5.0789449211
  O        22.9384329189       -4.2414049609       17.4400184528
  H        23.8383546347       -4.4614387943       17.0715355986
  H        22.7377502214       -3.4050624217       16.9491955099
  O        24.6905240847       -7.3722697965        8.7740136729
  H        23.9023742836       -7.7215705358        8.2820182113
  H        25.1468929674       -8.2993964750        8.8729460715
  O        20.2233063316       -6.9323022762       19.7683516242
  H        19.7297204826       -7.0064401802       20.6252968874
  H        19.5620601560       -6.8608648216       19.0084910028
  O        22.2412198121       -8.7562740232        7.2468236253
  H        21.8262228729       -9.6069691355        7.6226088437
  H        21.4771225757       -8.0655335772        7.2214824576
  O        12.5222418793       -4.8960128362        3.1269634008
  H        13.1990747629       -5.6735701454        3.1817390655
  H        11.7261220535       -5.1870719900        2.6329033502
  O        19.8386215308       -1.7883282543       20.5949360316
  H        20.8087370181       -1.4904405004       20.5393539601
  H        19.2813090814       -1.0559667046       20.1374559234
  O        20.4126865241       -3.1036575399       18.1749866577
  H        21.1553275632       -3.6137833048       18.5211113726
  H        19.8753502231       -2.7400711689       18.9583990009
  O        15.4921145109        2.2964916548        5.6440941475
  H        16.1881260604        2.6667890604        4.9797594728
  H        14.8324394235        3.0531236935        5.7377785927
  O        19.4681360710       -2.5223350967       15.5763171614
  H        19.7324367026       -2.5994359226       16.4997008698
  H        18.8404430371       -1.7980331737       15.6446619540
  O        23.9995196120        0.0778869007        4.9949733255
  H        24.9048060607        0.0883283432        4.6145545750
  H        24.1237174316       -0.5283095992        5.7574030451
  O        22.4320686481       -1.2373865404        8.7938925612
  H        22.2915081649       -1.7717146075        9.6205461830
  H        23.1446080110       -1.7257699695        8.3199302104
  O        19.1624853814       -1.1492144268       12.3549712686
  H        19.2670547649       -1.7497386405       11.6221637560
  H        19.9715360320       -1.0783589714       12.8315301142
  O        14.0273734072        0.1458445408       16.3726289621
  H        14.1791338250        0.4885702806       15.3749876089
  H        14.6397681058        0.6953943977       16.8955325537
  O        14.0812759006       -2.0906457426        8.6448583704
  H        15.0053177138       -2.4322624064        8.3195227807
  H        13.8027842500       -2.7252558834        9.3241973138
  O        28.7982737465       -5.8203846250        7.5950553353
  H        28.9880020831       -6.0261828761        6.6570308854
  H        29.3994467284       -6.4175049107        8.1266932020
  O        14.9556245633       -5.8003968013       11.9764752137
  H        15.0972163934       -6.7809069837       11.7626574896
  H        15.7333421598       -5.3999350097       12.4399231830
  O        10.9398618691       -4.8086371523       10.3257020984
  H        10.7105832143       -4.9042637762        9.3852939293
  H        11.9689188711       -4.7382105329       10.4058641234
  O        17.7103544084        3.1293992694       10.2625855158
  H        17.3542119845        2.6515807297        9.4547796324
  H        18.2421303078        2.4954007894       10.8318120761
  O        20.1873653739        1.9069619999        4.2931689027
  H        19.6229310929        1.2242554795        4.8098972662
  H        20.9833398047        2.0781214394        4.8207865006
  O        18.1678038346       -6.8620325238       13.7433921254
  H        18.0280649455       -6.2090928994       14.4741708731
  H        18.9570380335       -7.3866383446       13.8250229730
  O        16.7788472536       -6.4179595930       17.1584302596
  H        17.4158190310       -7.1308513600       17.2454804193
  H        15.9764278243       -6.7668093392       16.6540543662
  O         7.9575734590       -5.5389610422       15.8168500515
  H         7.7351174229       -4.7554656258       16.3933444838
  H         8.8352241012       -5.8196124061       16.2025609160
  O        23.6901945473        1.8041382779       13.3665337855
  H        23.4639641894        2.1812153706       12.4534183361
  H        23.4502619875        2.5002613013       14.0546434566
  O        17.4232296650       -4.4889919111       15.3148135275
  H        16.9856956047       -4.9016864699       16.0717208670
  H        18.0356111401       -3.7754957531       15.6323221954
  O        25.9575242373       -8.0667551540        5.3410773603
  H        25.0556844513       -8.5072414138        5.3131578040
  H        25.7145089851       -7.1436677273        5.6643690403
  O        10.0825625852       -8.5676423281        2.5082963420
  H        10.0939115780       -7.5929511491        2.3073151011
  H        10.4415233042       -8.8816088587        3.4445302923
  O        15.9574600313       -8.6738828510        1.4014745206
  H        15.5095361699       -8.6789580307        0.5292426515
  H        16.6880871527       -8.0009118825        1.2626147974
  N        15.9015241869       -2.3912595208       14.3746637720
  H        14.8777491979       -2.5502291096       14.3499012727
  H        16.1800593536       -2.3243840744       13.3660210455
  H        16.3032603195       -3.3089663792       14.7231780729
  H        16.3265087832       -1.5667534856       14.9134914144
