     194
 CELL 12.4294 12.4294 12.4294 90.0 90.0 90.0 i =    62820, time =    31410.000, E =     -1097.1514313676
  O         7.7084966023        0.6577780390       10.6982042287
  H         7.9507505837       -0.3100993841       10.7991518418
  H         8.5283030714        1.0907273937       10.9887220936
  O        12.4987952220       -8.6031535971        9.0228320716
  H        11.6367184281       -8.1080565681        9.1828025186
  H        12.3483166305       -9.5768485623        9.1096225244
  O         9.9457114063      -10.2249349756       11.3465518385
  H         9.9858485644       -9.6382376832       12.1664602975
  H        10.8030127421      -10.6909621552       11.1257162392
  O         5.0167605180       -2.3015056684       12.5863855524
  H         4.9641039949       -3.1013509495       13.1837034190
  H         4.4224404587       -1.5990771787       12.8946320107
  O        -0.7390369367       -9.1582227557       13.2915313011
  H        -0.2521636444       -9.6796066462       14.0037687890
  H        -0.0200699943       -8.9736901040       12.5826268264
  O        13.1119610158       -5.3524065793       21.6800387517
  H        13.4892708975       -5.8722829485       20.9481631415
  H        13.5638225371       -4.4850452591       21.8083280025
  O         9.8029444618        0.4229595780        1.8839542176
  H         9.4183245723        1.2730405498        2.1791649633
  H        10.7054089905        0.6560212714        1.5877717950
  O        13.8917867949        3.8271354764       11.5805436401
  H        13.4490569416        3.7848622727       10.7299886744
  H        14.3440025993        4.7432760491       11.7112307217
  O         6.4775710474       -6.3787943628        2.1691813489
  H         6.9387064008       -7.2105808732        1.8077708593
  H         6.0588700606       -6.4848279884        3.0741097273
  O        10.2332082975       -1.4518856213        8.4806183296
  H        10.0622162582       -1.8680536320        9.3768125670
  H        11.0093987758       -1.9504817288        8.2213976490
  O        10.7208021253       -8.1998717127        3.8436718318
  H        10.9982114026       -8.2894054083        2.9209092731
  H        11.0618104997       -9.0481266161        4.3340561002
  O         6.3878752948        1.9830250887        8.5695826633
  H         5.8274994118        1.6519084656        7.8374338911
  H         6.7053175679        1.2368328356        9.0984256847
  O         2.8513437933       -0.5948118899       13.0979181253
  H         2.4345345277       -0.8429439781       13.9944382224
  H         2.8083877791        0.4229794731       13.1166617967
  O        10.7759080720       -6.6848332842        9.9801975834
  H        11.6148184932       -6.1080404979        9.8098921285
  H        10.6660618341       -6.6101136798       10.9466509737
  O         8.9207231648       -1.9621902163       10.8023643817
  H         8.2762706357       -2.6742761512       10.4213133092
  H         9.1305343532       -2.2272524486       11.7340368989
  O        13.3713213835       -0.8381198546       10.8187225668
  H        13.7863598496       -1.6964738660       10.3665159847
  H        14.1278048840       -0.5209963211       11.4048216821
  O        12.7811189143       -4.7974107011       12.9716060681
  H        11.8820726955       -5.0636718492       12.7507386938
  H        12.8176785427       -3.8410426847       13.1292247322
  O        13.0927662699        1.8692005469       15.3212696152
  H        13.8360761459        2.4683202154       15.2406348538
  H        12.6654269234        1.9835691285       16.2012272210
  O        10.1612242536        4.7311797209        6.9956455688
  H         9.5029389206        4.7423818730        6.3163386306
  H         9.7018428654        4.4185674618        7.8560806314
  O         5.9772207123      -10.5609079140       12.4254088247
  H         6.3072108110      -11.1818653357       11.7112571160
  H         5.0400078415      -10.5355319418       12.4901127213
  O        13.8189356112       -0.8257238600        3.2046529184
  H        13.6426076879       -1.0308224166        4.1228226989
  H        13.7219935860        0.1239682697        3.0520729755
  O         7.7211200854        5.6960550575       10.7971756814
  H         8.5144815440        5.4076010683       10.2547698217
  H         6.9953982849        5.1777960586       10.4508328607
  O        15.8398963532       -0.8926081992       19.8563815097
  H        16.7014514682       -0.9683901378       20.3839922867
  H        15.9949627747       -1.3968850982       18.9930579893
  O         4.3346281103       -2.5717619468        5.6292297781
  H         5.0683604184       -2.1727334360        5.0244994730
  H         4.8241721347       -3.3058916521        6.0741966118
  O         6.5877575500       -1.6360271143        4.0905540286
  H         7.0178763554       -2.4869328117        4.3293139532
  H         6.9987181065       -0.9595751379        4.6922176651
  O        14.8897201987       -5.8066404682       11.8496874588
  H        15.2392927563       -5.6819968271       10.9323780676
  H        14.0028181210       -5.3475541695       12.0476429548
  O        17.9869325266       -8.4832099222        9.9453799137
  H        17.9676253172       -8.8990347500       10.8430670288
  H        18.1420926276       -9.2353580521        9.3064234834
  O        12.2340189320       -3.3698395072       19.7327153220
  H        12.4844512762       -2.6372318527       19.0186137733
  H        12.4951449966       -4.2314884628       19.2589343896
  O         5.6716215677       -4.8162276382        7.3391959115
  H         4.9881134288       -5.1672694922        7.9090404678
  H         6.2893082212       -4.5033550317        8.0758837767
  O         8.7285387007       -9.9037807974       15.3794588516
  H         9.1822379412       -9.1310824733       15.8290753064
  H         8.2135199973       -9.5244696054       14.6274356296
  O         4.5151296951       -3.3042537227       10.0186699852
  H         4.7472643160       -4.2546889588        9.9907699939
  H         4.5461705539       -3.1076037286       11.0198352429
  O        10.1043020878       -1.1206985660       16.8994421437
  H         9.9458878034       -0.5644210816       16.1264127919
  H         9.2244230911       -1.1554513109       17.3046051764
  O         9.6229737258       -4.7514944854        7.3152858963
  H         9.8076135069       -5.6758456723        7.4311004524
  H        10.4346395629       -4.2106809544        7.4569036774
  O         7.9420247904       -1.8007342012        7.0179703176
  H         7.7594239589       -2.6828414142        6.6312426793
  H         8.8189465825       -1.9622858241        7.3775912933
  O        22.2547152437        1.0806444994        7.0672680085
  H        22.1034940119        1.8221856514        7.7746657819
  H        22.0112245445        0.2489602720        7.5233176671
  O        16.0536041439        3.5264385890        5.1255750392
  H        15.4880261690        4.0193064104        5.7637252117
  H        16.5329036490        2.7030675684        5.3891894229
  O        15.6903627313       -4.6615302150       16.1131413985
  H        16.3478346394       -4.5640286674       15.3181797295
  H        15.8689938390       -3.9234077541       16.6403987634
  O        16.1456895403       -6.2608807401        9.2485341473
  H        15.4341190938       -6.5963075078        8.6732568967
  H        16.6548410806       -7.1323244947        9.3937850902
  O        12.1158814946       -6.0984957272       18.0421037088
  H        11.5980561893       -6.7661197708       18.5782689173
  H        12.2201500792       -6.4491161319       17.1745873977
  O        14.2733201180       -7.3999429637        6.9907256128
  H        13.8355681112       -8.0275142789        7.6107757500
  H        13.5945468790       -6.9057125657        6.4308829728
  O         4.5688645270       -4.8331289755        1.2456025583
  H         5.2728743321       -5.5155318947        1.3877864031
  H         3.7826161091       -5.2046630332        0.6506520393
  O        12.5742748284       -1.2036408066       18.3134494719
  H        12.8106616049       -0.4895316257       18.9362649980
  H        11.6977654550       -0.9669757516       17.8961423581
  O        10.6062236562       -4.1291662403       16.4372968409
  H        11.2390482613       -4.2547453438       17.1948809362
  H        10.4881321256       -3.1524731157       16.3021895419
  O         7.5919790657        4.8938589148        5.7362765775
  H         6.7051066975        5.1809803678        5.9785206900
  H         7.5609874476        4.8043704194        4.8031060851
  O        12.3823609838       -2.1272493991       13.5537968010
  H        12.7793238323       -1.5786334942       14.2511207701
  H        12.6366698583       -1.7719790759       12.6795491591
  O        17.3569266862        1.3219606083        6.1373301159
  H        18.0838319222        1.0104057390        5.5661309161
  H        16.8012443197        0.5448110819        6.3403337045
  O        14.0738389290        0.9948304436        7.4892571251
  H        13.8310019884        1.1227810748        8.4103482308
  H        14.7603726588        0.2729153250        7.4107464593
  O        11.5819833471        0.8427364613        9.6226856670
  H        10.8204305922        0.3708691876        9.1936959656
  H        12.2341581163        0.1806925273        9.9279969002
  O         7.4788232309        0.7571264900       17.4420573298
  H         7.8948817941        1.3319981399       16.7567834413
  H         8.1030250439        0.8040346688       18.2188471371
  O         5.5915352027       -1.1107706337        8.5767427584
  H         6.4607562671       -1.1614758308        8.1846135104
  H         5.6672183669       -1.8850274148        9.1884028681
  O        19.9099132598       -4.0417420247        5.3851083093
  H        20.7778450463       -4.4456474512        5.5213980039
  H        19.3461611852       -4.7523165557        5.7168884602
  O         7.6657069978       -4.2298119381        9.3295677531
  H         7.4666354259       -4.9584747224        9.9545105968
  H         8.4127882625       -4.4900190447        8.7621014590
  O         2.0741063682       -2.8404287055        9.3506239570
  H         2.0883031241       -2.4269964165        8.5042915689
  H         2.9918723226       -2.9140275727        9.6793253288
  O         8.9999114361        3.0271782384        8.8067311817
  H         8.0323707101        2.8430006214        8.9073052046
  H         9.3919371889        2.9969356059        9.7428651010
  O        12.1486661150        1.9015112923        5.2871227734
  H        11.3373455511        1.4211965401        5.6022936888
  H        12.7546674739        1.8475584195        6.0509893422
  O        10.1644384167       -6.6388930833       12.8169630620
  H         9.9203925339       -6.0363807070       13.5493561326
  H        10.5994083543       -7.4403252871       13.1105820529
  O         9.1326199296       -5.0812945865       14.6182527836
  H         9.6588909034       -4.9057244610       15.4175001856
  H         8.3446327625       -5.6036949446       14.8230453715
  O         1.1075964716       -6.2107078325       15.5730049527
  H         0.6010583416       -5.6672865875       14.7933237731
  H         1.7659248428       -5.5291164067       15.9294338349
  O        15.7379115844        2.0979859450       12.7389245975
  H        15.1170997581        2.5807730032       12.1007097183
  H        15.6140284380        2.5204836579       13.6519994586
  O         9.3958565937       -2.5513672124       13.3298880547
  H         9.2075322575       -3.3622242944       13.8949231874
  H        10.3330373589       -2.3105256647       13.6109514662
  O        17.4964347525       -6.5445026436        4.5657997043
  H        17.0941365714       -7.4486223413        4.5557369823
  H        16.7112405119       -5.8905796001        4.5718009551
  O         2.4552320866       -8.6418536006        2.7272054630
  H         1.9950403664       -7.8065928284        2.7973208449
  H         3.0034437163       -8.7651742177        3.5675778197
  O         7.7365927227       -8.3624248201        0.7735948452
  H         7.1778555781       -9.0549919876        0.2793437402
  H         8.3108138819       -7.8622778322        0.1651347882
  N         7.1036817966       -0.7317369939       13.8510379948
  H         6.9074362787        0.2690380530       13.6109341679
  H         8.1285967936       -1.0041818602       13.7660077877
  H         6.5577893683       -1.3258195386       13.1810855631
  H         6.7512254852       -0.8804373056       14.8369839717
