     194
 CELL 12.4294 12.4294 12.4294 90.0 90.0 90.0 i =    59220, time =    29610.000, E =     -1097.1705201792
  O         5.7123375249        1.2964379719       11.6964709990
  H         5.4660483472        0.8618371152       10.8519997577
  H         6.6289747767        1.5905276941       11.5439742219
  O        11.3495220928       -8.9887816549        8.9219946456
  H        10.3877630183       -8.7575047033        8.9608568977
  H        11.3495524738       -9.8973198799        8.4496599724
  O         8.4312952447      -10.4393331873       10.8783357460
  H         8.7378068844       -9.9723683019       11.6767034191
  H         9.2010793957      -10.8940011077       10.4328701227
  O         2.8919260093       -2.0308610893       12.0880774897
  H         2.7904083839       -2.9704977596       12.4779713452
  H         2.2856525041       -1.4207931562       12.5485273607
  O        -2.5209366077       -9.1197927969       13.1865442471
  H        -2.5360459015       -9.7286243625       13.9556909764
  H        -1.5985648222       -8.8844183805       12.9325388933
  O        10.4022340598       -4.6976042809       21.2153986949
  H        10.7739667745       -4.5882825151       20.3361683163
  H        11.0852019636       -4.4964202940       21.9090681967
  O         7.9614480572       -0.0663881456        1.9606950880
  H         7.8978866996        0.8606618112        2.1846003894
  H         8.4805269465       -0.0467582870        1.1653762475
  O        12.5073601077        3.7159321055       11.5679514066
  H        12.2362682942        3.5688005471       10.6786600075
  H        12.9119611900        4.6202801396       11.6033070622
  O         4.7892853895       -5.7703251067        2.4140851154
  H         5.1859687925       -6.6266334800        2.1308576541
  H         4.1089359392       -6.0909452305        3.1834994246
  O         9.0286988809       -2.3751798826        8.7778423466
  H         8.3340702013       -2.3260841162        9.4732861081
  H         9.4207422875       -3.2604762759        8.7218887998
  O         9.1981366066       -7.7854880205        3.7318089604
  H        10.1448314354       -7.7305268032        3.5671764089
  H         8.9055779102       -8.0823915158        4.5931445038
  O         4.4569768167        2.3323661928        8.6032835227
  H         3.9970938556        2.5146094182        7.7965586651
  H         4.7509688136        1.3918997122        8.6117831125
  O         1.3123585678       -0.0444041925       12.8530868751
  H         0.5952468063       -0.2032260213       13.4811350001
  H         1.6373492338        0.8357064524       13.1899661000
  O         9.1441233962       -7.3007756903        9.5476524730
  H         9.5721526879       -6.5134281627        9.1980089529
  H         9.2906926668       -7.2681908905       10.4963921270
  O         6.8922553607       -2.0164855327       10.3827359928
  H         6.4893248569       -2.8660163062       10.0407312364
  H         7.1404604507       -2.1254976990       11.3173823237
  O        12.1779074265       -1.2557006262       10.8289085838
  H        12.5861964423       -1.9775155216       10.2607630542
  H        12.9669061543       -0.7540113460       11.1805588965
  O        11.1814989599       -5.0520328049       11.9433332506
  H        10.4668307599       -5.6754204008       12.1987565773
  H        10.9471069911       -4.1184747389       12.1993985376
  O        10.5238412822        1.7302582956       15.4902834987
  H        11.2685033242        2.3477292289       15.5808034228
  H         9.9761996666        1.8814507817       16.2770229853
  O         8.4349206263        4.4124453770        6.7433951132
  H         8.7237988541        3.4441502499        6.5445401762
  H         7.7011935962        4.2730022250        7.4090687112
  O         3.8907992545       -9.0260256618       12.3724665940
  H         4.2267163055       -9.8634424235       11.9123828600
  H         3.0689072312       -9.2272902986       12.9599375219
  O        11.6897326255       -0.6047238243        2.3081181094
  H        11.8431820088       -0.8649526208        3.2498201666
  H        11.2211276375        0.2975259512        2.4985794659
  O         6.4511330453        5.7875929080       10.7438753438
  H         7.2831371836        5.6690914905       10.1742674903
  H         5.7031411865        5.5472177931       10.1157174992
  O        14.1270177241       -0.3219700131       19.7324372296
  H        14.6201403316       -0.9424559639       20.3033674946
  H        14.1831521294       -0.7772388829       18.8101663237
  O         2.1706745357       -1.8894674154        4.8521078679
  H         2.8579121736       -1.3132171888        4.3178960764
  H         2.7629282002       -2.3666209681        5.4619255000
  O         4.4800173774       -0.8861139498        3.5684563745
  H         5.0066924155       -1.5832623647        4.0290014707
  H         5.0149036411       -0.1186495320        3.8075012654
  O        13.4476895831       -6.1107526146       11.2133713215
  H        13.8494763022       -5.8476079141       10.3356071843
  H        12.5559185015       -5.6163728890       11.2095171553
  O        16.3398018932       -7.4596457668       10.0624333145
  H        16.1232602790       -7.8047068394       10.9578308124
  H        16.4644420896       -8.3089117910        9.5117883717
  O        12.0852597040       -3.1532108404       19.2097552224
  H        11.7847901424       -2.3212713882       18.7938931546
  H        12.9113388040       -3.4182312568       18.8255550003
  O         3.3452058426       -3.9891445668        6.1458237054
  H         3.1167911745       -4.6518332553        5.4545682546
  H         3.2044039581       -4.4936504568        6.9738863079
  O         7.3409882210       -9.7120825823       14.9879711109
  H         8.0518904088       -9.1962969872       15.4306728691
  H         6.9457004435       -9.1621246438       14.3038371828
  O         3.3464708156       -2.3394677209        9.4218672420
  H         4.0598016019       -2.8798840929        9.1001167950
  H         3.2387324802       -2.4381780676       10.4180359547
  O         8.7810973350       -1.8589186737       16.6785323804
  H         8.5008503948       -1.3079024502       15.9185095602
  H         8.1966398028       -1.6330272270       17.4432369469
  O         7.4019594225       -4.3635111635        7.1070547118
  H         7.0875397978       -5.1506049441        6.5059235503
  H         8.3825490729       -4.4716293099        7.3123724730
  O         7.2962462578       -1.2784424414        6.6394857012
  H         6.5920226754       -1.8252188285        6.2995234823
  H         7.7958049472       -1.6996702979        7.4201572478
  O        19.6574692942        1.3129056083        6.6984398982
  H        19.5233590302        1.7719175974        7.5937679265
  H        19.5266872580        0.2893560923        6.7436553919
  O        14.1363119293        4.1354638018        4.9271004586
  H        13.7448079780        4.4720332573        5.7684076156
  H        14.6989950029        3.3276451208        5.2163472848
  O        13.7142100606       -3.9948035728       15.4661879609
  H        14.1990990628       -3.8334727468       14.6678235153
  H        13.8705554205       -3.3063219317       16.1260455258
  O        15.0732442643       -5.3964215822        8.6247861531
  H        14.3277274787       -5.9734842512        8.2088383667
  H        15.6935940825       -6.0294606213        9.1009422786
  O        10.1043131334       -5.8955976325       18.9421753974
  H         9.5025854025       -6.4909878138       19.4060894885
  H         9.6977804658       -5.8095267170       18.0678105039
  O        12.7209276816       -7.1962932021        7.5450912656
  H        12.2747080630       -7.8966928353        8.0997944100
  H        11.8972090872       -7.1153169287        6.9761851664
  O         2.5371741776       -4.4599930984        0.6606324506
  H         3.3683508261       -4.9338462676        0.9447111091
  H         1.9282614228       -5.1135980841        0.2845429936
  O        11.2437709198       -1.0542675578       17.5162033441
  H        11.2807168530       -0.3624968086       18.2198004393
  H        10.3255651507       -1.3313006351       17.3152658178
  O         9.2011543607       -4.5606049189       16.1964026705
  H        10.0969936113       -4.7404397225       15.8335998940
  H         9.1127745109       -3.6051684025       16.3747499461
  O         6.5152506538        6.3191858593        5.1224856629
  H         6.1637183043        6.8843100814        4.4212914720
  H         7.3869354972        6.0598864977        4.7310897584
  O        10.6018917749       -2.2343644636       12.9234657119
  H        10.9107774739       -1.7834318986       13.7596249099
  H        11.1329962664       -1.8672464959       12.1894096801
  O        15.9284171504        2.1363947047        5.7789573312
  H        16.7770263916        2.0301376610        5.1542087839
  H        15.4261187859        1.2964863742        5.8080667666
  O        11.4712052596        0.7733949279        7.2737753753
  H        11.1687713087        0.1477025713        7.9609281606
  H        12.4416807582        0.6059654787        7.1008608874
  O        10.1022538524        0.0906065580        9.5565462512
  H         9.5768942322       -0.7368294346        9.3231469830
  H        10.8864340577       -0.3825414544       10.0428967030
  O         5.8202213765        1.4335234914       16.8508261542
  H         6.2826771017        2.0011551812       16.1795201366
  H         6.3375782346        1.6063286572       17.7414684165
  O         5.2020658718       -0.1799304420        9.3078715419
  H         5.8574740493       -0.8734663550        9.6764310833
  H         4.3336887411       -0.6593847179        9.3062156024
  O        18.0389617976       -2.8636142879        5.0254950770
  H        18.8436981415       -3.3579328869        4.8013569197
  H        17.5153198762       -3.2618205723        5.7265838410
  O         5.9633728829       -4.1681618282        9.4152031357
  H         6.1832535347       -4.9951608830        9.9675310675
  H         6.4530748715       -4.2928464653        8.5976212916
  O         0.6789990644       -3.3913446873        9.3896012558
  H         0.4607509822       -3.1671528035        8.4405102638
  H         1.5933390197       -3.5998580619        9.3596765240
  O         6.9918062779        3.1932629536        8.6313639437
  H         5.9986614479        3.0793038093        8.7735514550
  H         7.4012104733        3.0126078894        9.5192823883
  O         9.3705623229        2.0820926091        5.6637588267
  H         8.4911633663        1.6731318227        6.1003982692
  H        10.1372640303        1.8201045349        6.2465065258
  O         9.0644902911       -6.6897098638       12.6144298265
  H         8.4374214872       -6.1877363424       13.1444636960
  H         9.3627436867       -7.4367932485       13.1439969868
  O         7.5451748825       -4.8955706230       14.2496614094
  H         8.1458145653       -4.7462978053       15.0562234490
  H         6.6787701810       -5.3070268372       14.4397851201
  O        -0.6717531651       -5.7431236091       14.8220020530
  H        -0.8149499734       -5.3560966044       13.9213239945
  H        -0.0696275830       -5.0891306986       15.2464890888
  O        13.9562690324        2.6974356459       13.4187093278
  H        13.5523363624        2.9225856279       12.5326497852
  H        13.3695727136        3.1242683857       14.1390461098
  O         7.9484200466       -2.7054390444       12.8779720003
  H         7.8605417644       -3.6137937736       13.3261083265
  H         8.8579027273       -2.3915868269       12.8734382752
  O        15.1011776040       -5.8876744851        4.2539956163
  H        14.7134726293       -6.8339143330        4.3443357036
  H        14.4045104166       -5.3367626587        3.7541308201
  O        -0.1246395792       -8.3587659632        2.7901847261
  H        -0.1578627292       -7.3944611261        2.5369926712
  H         0.3930536526       -8.3260464483        3.6541200009
  O         6.0938592773       -7.8843885935        1.1004525275
  H         5.2002278714       -8.3595368373        0.8078768123
  H         6.3434293115       -7.4757450850        0.2053131441
  N         5.3961697610       -1.2151677691       13.2978209729
  H         5.5004522060       -0.1937131560       13.2785221921
  H         6.2857191633       -1.7643626681       13.2563431156
  H         4.6313129238       -1.6171237518       12.6573661360
  H         4.9889790319       -1.2869427530       14.2861164805
