     194
 CELL 12.4294 12.4294 12.4294 90.0 90.0 90.0 i =   102820, time =    51410.000, E =     -1097.1157204860
  O        22.7082838489       -2.2973169530       16.1410701179
  H        22.8822965524       -2.6813781670       17.0371083800
  H        22.4417870663       -1.3455559855       16.2566114118
  O        26.5674676002      -10.9836338542       10.7564920156
  H        26.9805228862      -10.9132733428       11.6521406850
  H        26.0955388395      -11.8477104831       10.6706244980
  O        25.7364403914      -12.4635935391       18.7767102405
  H        26.2630917961      -11.7788175195       18.2361535118
  H        25.8347577194      -13.3454528071       18.2255509200
  O        21.0243956674       -4.7257125798       13.9179980638
  H        20.3941205494       -4.3473839592       14.5868752809
  H        21.1870335829       -3.8838043015       13.3860849071
  O        15.0155490253      -11.3819540106       16.7858695827
  H        15.7822165303      -11.4635813458       17.3537592935
  H        15.0585345364      -12.2477571431       16.3089804178
  O        31.0032716816       -8.5061139619       25.2752293265
  H        31.5330426396       -7.6789651549       24.9553107793
  H        30.7349387418       -9.0059962767       24.4447620782
  O        23.3466310102        1.3069272399        7.3332026431
  H        23.3244709759        2.2104146867        6.9107136648
  H        23.9714532359        0.8386275957        6.6420153591
  O        27.3465848726       -1.3445459200       15.3234245900
  H        28.2077212969       -1.7905841014       15.5866663708
  H        26.8545419851       -1.7523309498       16.1043026947
  O        22.7121854814       -6.4613979484        6.8622707397
  H        21.8736590262       -6.0362292325        7.0786121121
  H        23.2046926963       -6.6141185573        7.7195466470
  O        25.1642836664       -5.4638756245       12.5888286261
  H        25.8784848359       -6.1508823990       12.5542222778
  H        25.6087203057       -4.6730030092       12.7450991323
  O        24.8527532013       -7.3133285326        8.2594325947
  H        25.1512325569       -7.5325507729        7.2897584667
  H        24.7279420536       -8.1673879280        8.7644654555
  O        19.1325921797       -2.6088186031       10.7270480570
  H        18.8796295497       -1.7026093902       10.9354866485
  H        20.1146498749       -2.7252606469       10.9968692444
  O        17.3905629052       -1.9525225160       16.8038030408
  H        17.1140868204       -2.3097616843       17.6798288862
  H        17.6742451857       -1.0438097689       16.9582815418
  O        28.4072365987      -11.5938359440       13.1615156286
  H        28.8492157594      -10.8839289109       13.6471241867
  H        28.1355178216      -12.4117305463       13.6853990818
  O        24.1501964176       -5.5576583932       15.1795436105
  H        24.5492769144       -5.6704442701       14.2879116121
  H        23.2006465617       -5.3174539704       14.9450525192
  O        30.7499972956       -1.7823700444       13.6413745313
  H        30.6953727255       -1.6928225499       14.6052165313
  H        29.8088545975       -2.0744242104       13.4400594307
  O        31.8253019733       -6.3779208518       17.2330349972
  H        32.0943989523       -5.6921273864       16.6018936432
  H        32.0768060714       -5.9103922769       18.0644571397
  O        29.0291646635        0.7448959029       18.9652743253
  H        28.6722184095        1.2408137928       19.7639166644
  H        28.9599566333       -0.2722461450       19.1398081206
  O        26.6691763818        5.8171065791       10.0114913854
  H        26.0165189374        5.3690410058        9.4192176380
  H        26.8915542027        5.1739252442       10.8156015056
  O        19.0585511980      -12.0590963136       16.3346801249
  H        19.1425316556      -11.6986068833       17.2437422133
  H        18.4864583474      -11.3543169964       15.8672767899
  O        29.2954654954       -2.5112403324        7.2038604896
  H        28.8034150688       -2.0987896199        7.9573025255
  H        30.2266691106       -2.5656948244        7.5812411230
  O        24.3330851459        1.2162778516       14.1012524708
  H        23.7378978476        1.7100415358       13.5211226563
  H        24.5591478807        0.3857163753       13.6309755515
  O        30.2639357023       -4.9825993276       23.3929143564
  H        30.3187995997       -4.0563684242       23.0983652293
  H        30.6929107574       -5.5609604255       22.7450047734
  O        23.2577172621       -3.5275416344        6.3880568358
  H        23.0642680009       -4.4853734978        6.3085178463
  H        24.1548082710       -3.4880883452        6.8472032464
  O        22.9899074386       -1.9812051463        8.7547121428
  H        22.2119975029       -1.8383359082        9.2734145538
  H        22.7227643974       -2.5153103170        7.9734191404
  O        29.2775366261       -7.0817527400       16.6170210997
  H        30.1198278989       -6.5809958884       16.9247139495
  H        29.1117425322       -6.6894687277       15.7238698169
  O        32.6047943694      -12.1368647562       13.0105839197
  H        32.3786103820      -11.4922130229       13.6997170974
  H        31.7640102283      -12.6515548558       12.9653673317
  O        31.1131856685       -6.6889731347       21.3854742712
  H        31.7570207598       -7.4599805924       21.4720867490
  H        30.2160084386       -7.0085581237       21.0194854727
  O        22.3385941065       -7.1758621846       10.6650811488
  H        22.0860618957       -7.6300118309        9.7998260060
  H        21.5435480961       -7.2858645431       11.2374278394
  O        20.5271508736       -8.8039946521       16.8575787888
  H        20.5397921693       -9.0260572458       15.9002540922
  H        20.1137860510       -7.8050012603       16.8455499434
  O        20.1189568119       -6.3777359091       12.0554023532
  H        19.6279895227       -5.7781421091       11.5070187031
  H        20.5638671497       -5.7833598862       12.7458204630
  O        25.2092626747       -3.5404312882       20.6899697076
  H        24.5469407992       -3.8449146347       21.3428338489
  H        25.0653134006       -2.5684920160       20.9113987013
  O        27.0358977673       -7.6352679340       12.8463544428
  H        27.7202983285       -7.3315552820       13.4263190359
  H        26.6140307236       -8.4001988225       13.2946620186
  O        23.7948279917       -4.9216414421       10.1143360896
  H        23.1218777537       -5.7190509340       10.2667424605
  H        24.5086650129       -5.1897492695       10.7657872416
  O        36.5627161929       -0.8610664983       11.6536205328
  H        36.8727629079       -1.4194967487       10.9645458087
  H        35.7761627770       -0.4187699996       11.2766832812
  O        31.7974275537        1.9690034477        6.3860389190
  H        30.8210322620        2.0768445962        6.2084560156
  H        32.1917167905        2.5536483661        5.6386009063
  O        32.8162659950       -5.2032515041       19.6001764522
  H        32.2795404928       -5.5591126595       20.2872927355
  H        32.6181016060       -4.2462849507       19.7469389213
  O        30.9235880515      -10.2406045761       10.3477323045
  H        30.2418599005      -10.2152908107        9.6458535347
  H        30.7299396045      -11.1761694771       10.6110581211
  O        28.6686525910       -7.3647540284       20.4329125993
  H        28.0687156916       -7.0578878539       21.1778739241
  H        28.2717272650       -7.0232041557       19.5837556921
  O        28.5697087974      -10.0669251215        8.6068982387
  H        27.8827410368      -10.0867609287        9.3006878763
  H        28.6718083823       -9.1478762897        8.2543956743
  O        20.0551150008       -3.7161973360        3.7458967910
  H        19.2190534257       -3.2696081585        3.9348575552
  H        20.8759589778       -3.0604122314        3.6575989285
  O        28.1183864108       -3.4912358341       25.9437892495
  H        27.3748397901       -2.9487309493       26.2039560670
  H        27.9373166014       -3.6677612189       24.9838673490
  O        27.8491985747       -1.6701140009       21.9536771913
  H        27.7327503818       -2.5982960422       22.2555802604
  H        26.9865050663       -1.3655428325       21.7328341333
  O        20.7353315236        0.1033824875        8.0530004891
  H        21.6439039564        0.4158481830        7.8283577941
  H        20.1895093018        0.6695689921        7.4382887674
  O        25.2934617873       -0.6057861838       21.3229112276
  H        25.6016327872       -0.3562714497       20.3900967820
  H        24.3063854859       -0.6983735299       21.3607093284
  O        32.0737016812       -2.5548019450        7.8689211070
  H        32.4503111868       -1.6278738612        7.9305657538
  H        32.0193854456       -2.7581783395        8.8285815807
  O        27.6590153322       -4.2763488381       10.6614232975
  H        27.1206158203       -4.9495115937       10.2665138720
  H        28.5402220815       -4.7502685017       10.6870974572
  O        25.8644428051       -2.4195969819       17.3916819422
  H        24.9597536321       -2.8735275838       17.2975098647
  H        26.3188825500       -3.1530337243       17.8629580632
  O        22.5054108189        0.5325722476       16.2989797517
  H        21.7380437989        0.7340354118       15.7873166319
  H        23.2662161547        0.6488926439       15.6890286607
  O        21.9011885872       -3.0958302404       11.7878857222
  H        22.6409488713       -3.7713686128       11.5922592871
  H        22.4343548138       -2.3275966489       12.0629927947
  O        34.8203046079       -9.9342262170       12.2175599394
  H        35.2197380075       -9.1897592656       11.7176549576
  H        34.5743263972      -10.5463193695       11.4667311691
  O        21.4834006072      -12.7371534457       10.7354071814
  H        20.9177860120      -12.3221630555       10.0032879743
  H        21.0544429446      -12.6774266653       11.6670979341
  O        16.6627471763       -6.1175653651       13.8710262023
  H        17.2078098891       -6.1249661865       13.0673030234
  H        16.3439696903       -5.1839268522       13.7691019084
  O        24.8476475064       -2.6290663053       13.6050647394
  H        24.4186361720       -2.0383095762       12.9176999022
  H        24.0969965569       -2.9232237080       14.2001135624
  O        24.2122932042        3.0249021280        9.8901240020
  H        23.8965019333        2.2730587214        9.3553681131
  H        25.0409890566        2.6936109135       10.3204623230
  O        26.5160186964       -9.5845393826       14.7350588876
  H        25.6491804114      -10.0294948040       14.6435374153
  H        27.0433147866      -10.1633659883       15.2966840296
  O        22.8607108609       -8.8506405304       18.2095419512
  H        22.7319931989       -7.9363515222       18.5792508341
  H        21.9802394255       -9.0438545734       17.7489855553
  O        14.8594190166       -6.7597750265       18.2334282123
  H        14.7183115857       -5.7909205637       18.4160776828
  H        15.6261897309       -6.7886428206       17.5972026217
  O        29.9975808023       -0.1657610725       10.9219914280
  H        29.2348805885       -0.4746229539       10.3106519927
  H        29.6105151786        0.0324111079       11.8022975137
  O        27.1744574656       -4.2600210957       18.9161561012
  H        26.5203426690       -4.1153605131       19.6716141390
  H        27.8727088394       -3.6315599548       19.1565215292
  O        32.7938747511       -8.9727444138        8.8820642047
  H        32.5073599819       -9.5627582964        8.1632944024
  H        32.4724370462       -9.4905349828        9.6600159722
  O        17.3218178256       -9.7309216177        2.7355918508
  H        17.7266573416       -9.1856668566        2.0186534261
  H        16.8865713358       -9.1364254791        3.3803108527
  O        20.5901272696       -9.6270991853        1.9374684057
  H        21.3734999078       -9.6851987471        1.3278890457
  H        19.8983425465       -9.2778821042        1.2856869538
  N        24.9383565576       -7.7652187469       16.6632513503
  H        25.5971829314       -7.3736829022       17.3614315398
  H        25.4158426206       -8.3988859850       16.0458122607
  H        24.5905973787       -6.9267302138       16.1376777362
  H        24.1316478633       -8.2846506055       17.0306304953
