     194
 CELL 12.4294 12.4294 12.4294 90.0 90.0 90.0 i =    84820, time =    42410.000, E =     -1097.1371216238
  O        16.6308601336        0.9402353002       12.0316404739
  H        17.5046942474        0.3783238904       12.0726869794
  H        16.9083687160        1.8534372915       11.7515252152
  O        22.5354460983      -10.7176932905        9.1956453175
  H        21.5843353712      -10.8552524291        9.1569814826
  H        22.9857500648      -11.5667011653        9.4652456383
  O        20.2617662244      -11.6471663780       11.9742706249
  H        19.8111459946      -11.1206587048       12.6507834734
  H        20.1885449210      -12.5912500527       12.3335322228
  O        14.4663420047       -2.4460966845       13.4930926725
  H        14.7239129747       -3.0611436211       14.1592744723
  H        13.6876679831       -1.8752573964       13.8040025790
  O         8.3280809620       -8.7787359861       13.2443712609
  H         8.7444795454       -9.4859177827       13.8201475524
  H         8.7497216336       -9.0338817264       12.3660394753
  O        26.3083048407       -7.0387657729       24.8010729229
  H        26.7462659049       -7.7878905369       25.2151996261
  H        25.6959729275       -7.4180334842       24.0743914701
  O        19.1520778423        0.1387363011        2.1719172487
  H        18.5717174585        0.7339820527        2.6337335097
  H        20.0112955936        0.4178116215        2.5792715104
  O        22.9585844206        3.2255483455       11.5005044419
  H        22.7497189654        2.7495643955       10.6609441371
  H        22.8755735634        4.2147945168       11.2952810270
  O        15.9467997912       -6.7257002260        3.6443087867
  H        16.0571892752       -7.1579860210        2.6988091665
  H        15.4442439836       -7.3777455872        4.1604937945
  O        19.2383210389       -2.9826549123       10.2649209075
  H        19.2680847675       -3.9947303491       10.5202586521
  H        20.0007754196       -2.6693829503        9.7039898700
  O        20.0004133271       -8.0417645428        4.4494484606
  H        20.7661944817       -7.5179020870        4.1534948693
  H        20.4837392677       -8.8686928759        4.7639435292
  O        15.3914982150       -0.0696984531        9.7091319053
  H        15.2846008213       -1.0169943125        9.4837049920
  H        15.6883044029       -0.0902579629       10.6555069212
  O        12.2023907359       -1.0032061631       13.9546272584
  H        11.8135061278       -1.0151183464       14.8714583235
  H        12.0873771489       -0.0507273222       13.6919167235
  O        22.0919773246       -6.6286950352       11.1026357625
  H        22.5113098505       -5.7398433549       10.6154672282
  H        22.0109878754       -6.4167262700       12.0130117144
  O        16.9856874368       -2.2315456361       11.7116506494
  H        17.4843150857       -2.4797212275       10.8879557787
  H        16.0041951072       -2.3663425890       11.6954694631
  O        23.1717791019       -2.2409628610       12.2732013733
  H        23.3965750319       -3.1726496815       12.4264168329
  H        23.7410488132       -1.7595893169       12.9432077715
  O        23.8187692053       -5.0226760262       13.1997391974
  H        24.6127316433       -4.9257065659       12.7317255794
  H        23.9797911359       -4.6285324209       14.0885900950
  O        21.7280961563        1.2090512398       14.7273035917
  H        22.4352671639        1.3752880344       15.3626546433
  H        22.1884671561        1.0683252772       13.8400230042
  O        19.9571787278        4.8095095356        9.3335952228
  H        19.9003343839        3.8602257949        9.5444786301
  H        20.7920357315        5.0032671766        9.7901271727
  O        15.2797736539      -10.5162183884       14.2374476654
  H        15.4902492106      -11.0778710536       13.4452712315
  H        14.3345739999      -10.4594664479       14.3146721308
  O        23.6289106494       -1.4100715780        3.9187716754
  H        22.6907032139       -1.4710912336        4.3034229447
  H        24.1583347986       -0.8244756366        4.5254779768
  O        17.4449141038        3.6430877972       11.2073074401
  H        18.2584440163        3.8474132782       10.7355023109
  H        16.6924360601        3.9471534913       10.6272352280
  O        25.4631914042       -1.7667666529       20.2365814431
  H        26.3267876231       -1.9631510737       20.7122982938
  H        25.1905673545       -2.7282839505       20.0365563901
  O        16.2850528706       -2.3638523327        4.0906404590
  H        15.7360405576       -1.5124706659        4.0956536473
  H        15.6413574806       -3.0968281245        3.8871546437
  O        18.5701905562       -2.5732295882        5.5533639444
  H        18.3300656279       -3.2016153856        6.3439926762
  H        17.6827309195       -2.4982776403        5.0150788337
  O        23.3627604670       -7.4604371152       14.2334168329
  H        23.5581492462       -6.5592672194       13.8032772253
  H        22.5654092993       -7.7772948511       13.8027496731
  O        25.8031035110      -10.6507182781       10.2283252946
  H        25.5347594856      -11.0692501537       11.0875690908
  H        26.2567517019      -11.3603548886        9.7146554338
  O        25.1160911483       -4.4703323740       20.1783918326
  H        25.7972189535       -5.1670625672       20.0610451444
  H        24.3283742258       -4.6257440741       19.6014190169
  O        14.4647233616       -6.5589685822        7.9545888294
  H        14.1523765580       -7.1496510626        8.6512576023
  H        15.3635565264       -6.2506573877        8.3690136694
  O        18.0542517216       -9.8229171116       15.5266631704
  H        18.7917830951       -9.1751470975       15.6487282965
  H        17.4617112974       -9.4191673751       14.8708420244
  O        13.7484206055       -4.2279365806       11.7111456498
  H        14.1278457014       -5.0902696874       12.0252955227
  H        14.1157307294       -3.6718641868       12.4086467112
  O        19.5517938208       -0.3830753842       19.3272722776
  H        19.0783547541       -1.0107084513       18.7504902320
  H        18.7557436801        0.0532505929       19.6697606587
  O        18.7187634379       -5.5520412249       10.9384672067
  H        19.1149134200       -6.2843762094       10.4174591716
  H        18.8322396018       -5.8785402941       11.8769688511
  O        17.4327172991       -3.6585295181        7.9513541130
  H        17.5592214289       -4.6111598625        7.8114904077
  H        17.9602478435       -3.4847583769        8.8177459487
  O        30.2196396724        1.2879811977        8.2205755492
  H        29.9720038907        1.6775403001        7.3519754332
  H        29.3494050044        1.0268307476        8.6393480825
  O        24.9624207474        2.7119668333        5.9925376085
  H        24.5083346089        3.1732114208        6.7927334777
  H        24.9904146914        1.7303244377        6.0902253339
  O        24.4895449729       -3.9785138495       15.8998434106
  H        24.2060208671       -4.4414380019       16.6645363090
  H        24.3639101894       -3.0245924905       16.0935489947
  O        25.4480228606       -7.7985889519        9.9272430240
  H        24.5796422696       -7.6743800881        9.5903941026
  H        25.5442318824       -8.7791542565        9.9981921582
  O        22.0469250197       -6.8738458633       18.9115580903
  H        21.0850424170       -7.0295420592       19.0810719809
  H        22.2260941729       -6.6481298762       17.9759628058
  O        23.5581775401       -8.5078583742        8.0208560214
  H        23.1454832357       -9.2647021737        8.4568270216
  H        22.8412341953       -7.9932709538        7.5685617551
  O        14.9569286191       -4.3190971141        3.0262809482
  H        15.2397669600       -5.2832759581        3.2058906219
  H        14.0856510347       -4.3790104670        3.4164343255
  O        21.0645128784       -2.0157344247       20.9255527443
  H        21.7277194275       -1.6351158025       21.5746491278
  H        20.5648697179       -1.2408385774       20.4381221928
  O        22.4887527336       -3.7291282118       19.0086039340
  H        22.1671164935       -4.5800232102       19.4729119632
  H        22.1359241773       -3.0251909180       19.6124444664
  O        16.9665577861        2.1159400389        5.6618368827
  H        17.5049914692        2.2939274699        4.8652256112
  H        16.2067270927        2.8341977690        5.7351360657
  O        20.9925622687       -2.4989428832       16.9622221095
  H        21.4549471844       -3.0118461800       17.6715336631
  H        20.0326601430       -2.3578373755       17.3266533074
  O        25.5090601223       -0.1103632204        5.6341885353
  H        26.3335719615       -0.0349479875        5.0128509178
  H        25.5832910353       -0.8076779597        6.3295532368
  O        23.5856446023       -0.8357472301        9.6422569048
  H        23.9855234133       -1.2949355870       10.4032059461
  H        24.1860364137       -1.0785448854        8.8865865149
  O        20.4420325559       -1.8127591899       12.6567031405
  H        19.9980448315       -2.3115507923       11.9118588882
  H        21.3912046822       -2.0403342628       12.6521062994
  O        15.3030681584        0.0730969118       16.6335407034
  H        15.1409141831        0.7042670274       15.8921995571
  H        16.0740073578        0.5462109279       17.0652733866
  O        15.0298190165       -2.9599040701        9.2950441601
  H        15.8008774179       -3.3913370735        8.7715903404
  H        14.6223778026       -3.6039778925        9.9690373743
  O        29.7724452518       -6.2590563528        7.7347142694
  H        30.0118183116       -6.4095509425        6.7498480148
  H        30.2952124526       -6.8923775660        8.2189376507
  O        15.9145904979       -6.1649563373       10.3977459252
  H        15.4262451884       -6.4871589423       11.1867403209
  H        16.8515845671       -5.9869217795       10.7220985448
  O        10.4025975798       -4.5236969783        9.5971386876
  H        11.2844278182       -4.5155995585        9.1710976164
  H        10.2408503749       -3.6143612194        9.8701948273
  O        19.6312081986        2.1988723650        9.9629840284
  H        18.8926050061        1.8654439283        9.3795337651
  H        19.6465783828        1.5615192446       10.6933433332
  O        21.2213042434        1.4415291594        5.1884753763
  H        20.8302080920        0.7132346572        5.8031269919
  H        21.9727544796        1.7538822178        5.8169742219
  O        19.5843195901       -6.1661463540       13.5530895899
  H        19.8524019290       -5.6602145643       14.3842394363
  H        19.9790495861       -7.0495854297       13.5765665632
  O        18.1490440683       -6.3345655513       17.6589451453
  H        18.6958820760       -7.1044275889       17.4983970805
  H        17.3536031794       -6.5051701137       17.0286834070
  O         9.6669144079       -6.3082339056       16.3426594134
  H         8.9660510713       -5.6712564942       16.0120425189
  H        10.1197730264       -6.6283267515       15.5231139538
  O        24.3265124591        1.5850885625       13.1627363489
  H        23.9216421591        2.2858707814       12.5412767452
  H        24.4990419212        2.0424500383       13.9760654151
  O        19.7577050677       -4.6705896759       15.7395403850
  H        19.1559015646       -5.0649752560       16.4412968777
  H        20.2101693077       -3.8657316974       16.1709116456
  O        27.4255167181       -8.1713459386        5.8236300267
  H        26.5685576149       -8.6569051417        6.0447286111
  H        27.2835418746       -7.3279065162        6.3481496104
  O        12.2032645615       -9.6756886954        3.1234603603
  H        12.2429346969       -8.7552981132        2.7710548426
  H        12.3551604140       -9.5737039324        4.1088297700
  O        16.8456911832       -7.3485661098        1.1997649224
  H        16.8740698902       -7.5567556809        0.2343564227
  H        17.5802151519       -6.6821475654        1.2962945954
  N        18.0336015352       -2.5009276174       14.3031922936
  H        17.2102757439       -2.2620130732       14.9765199978
  H        17.7895582700       -2.5278226414       13.2826902628
  H        18.3652737605       -3.3829007342       14.6985714032
  H        18.7309100262       -1.7500187735       14.4142946149
