     194
 CELL 12.4294 12.4294 12.4294 90.0 90.0 90.0 i =    57620, time =    28810.000, E =     -1097.1572902017
  O         5.3666265492        1.3859331386       12.0179247130
  H         5.0266678846        0.9043546838       11.2259575552
  H         6.2866619537        1.6998973675       11.8804802588
  O        10.0848413780       -8.5075917519        9.2323065178
  H         9.4209415831       -7.7922135681        9.1236402451
  H         9.6694755472       -9.3800174606        9.0534994603
  O         7.9720775061      -10.1898848973       11.1666707633
  H         8.1718658192       -9.5124384032       11.8096792470
  H         8.7208631978      -10.7759384759       11.3466145907
  O         1.9395921259       -1.9061464075       12.4213557211
  H         1.8372340601       -2.6128762056       13.1076416032
  H         1.2349336340       -1.3009097786       12.6272703506
  O        -2.9708588607       -8.4173623271       12.9465504118
  H        -2.6345843539       -9.0830320203       13.6596797025
  H        -2.1522208036       -8.1416608490       12.4903302201
  O         9.3732308166       -3.9219811438       20.9901209882
  H         9.0558501724       -4.4425104868       20.1291339662
  H        10.2973705008       -4.1718000924       21.0851603033
  O         7.4645900979        0.2567237075        1.7528016640
  H         7.3009084618        1.2252811840        1.8554157518
  H         8.0649946376        0.1975706847        1.0857309316
  O        11.7975860271        4.3431623857       11.4954379418
  H        11.3766758432        4.1888315292       10.6397050343
  H        12.1370446120        5.2937221289       11.4916666175
  O         4.6071627873       -4.9832120012        2.5228645347
  H         4.6087844200       -5.9795902894        2.4318236312
  H         5.0517057741       -4.8189484539        3.4255089497
  O         8.1880243546       -1.3763798228        8.0793847681
  H         7.4180028694       -1.5352694772        8.7137923974
  H         8.7583725358       -2.1471058230        8.1826224524
  O         8.5828944811       -7.3136882879        3.4859402140
  H         9.2329142625       -6.9735975662        2.8322082322
  H         7.8405220848       -6.6726515514        3.4643860822
  O         4.4331290295        2.2918900790        8.9392777341
  H         3.7689494160        2.4847283749        8.2207834292
  H         4.2504721229        1.3330273409        9.1386925757
  O         0.0951940991       -0.1493449242       12.9942935962
  H        -0.5816490661       -0.2239648757       13.7317412659
  H         0.2574502742        0.8927014270       12.9417835818
  O         8.0119625138       -6.7365483788        9.5051122808
  H         8.3610553351       -5.7840556250        9.4910654169
  H         7.5914027015       -6.9619148253       10.3750552435
  O         5.8838243169       -1.8674751864        9.7859162586
  H         5.4256373913       -2.6637248281        9.3462363504
  H         6.3147208005       -2.1469801325       10.7171631140
  O        11.5071276571       -0.7998912122       10.4773950167
  H        11.7474833987       -1.5692343461        9.9323579597
  H        12.1067978732       -0.7778397465       11.2778807162
  O        10.3455051901       -4.3769542130       11.7142499265
  H         9.8863174345       -4.2159206787       10.8961133456
  H         9.9639911254       -3.8064255896       12.4575347064
  O         9.9902280003        2.1584590461       14.9483282317
  H        10.9081655103        2.5795023065       14.9403705407
  H         9.6730036431        2.4107899386       15.8762680237
  O         8.2535603589        4.7225160892        6.3579339387
  H         8.3119497781        3.9505355012        5.7543873085
  H         8.0682806749        4.3077785798        7.2138771190
  O         3.2947565428       -9.2195890073       12.2739863785
  H         4.0349812062       -9.8669784348       12.1735474678
  H         2.5984756403       -9.8087883546       12.6785690571
  O        10.5558904687       -0.4806886922        2.3755421767
  H        10.5445240651       -0.9460807018        3.2797571730
  H        10.1546801265        0.3874410761        2.4710391903
  O         4.2132069131        7.5191976204       11.5870576457
  H         4.6785629947        7.3603460854       12.4338261765
  H         3.9317925508        6.6348132247       11.3415080442
  O        14.0024839961       -0.6604575790       19.6341219224
  H        14.1400931846       -1.2135485285       20.4479889612
  H        14.1203355750       -1.3965018263       18.9466969369
  O         1.5897181303       -2.4329745978        4.9785687265
  H         2.3610900053       -2.0461971547        4.5089080010
  H         2.0574974032       -3.2657197367        5.3103942752
  O         4.1657309805       -1.0764245976        3.9111616086
  H         4.8616436879       -1.5160930326        4.4708491518
  H         4.2175154036       -0.1400206277        4.1267210333
  O        12.8745508010       -5.5461828767       11.3461358476
  H        13.3575857375       -5.5956615369       10.4579472049
  H        12.2665061818       -4.8296339955       11.1326281870
  O        15.8422112243       -7.2801672987       10.2501411558
  H        15.5971519855       -8.0697864083       10.7363435920
  H        16.4879178284       -7.4532461832        9.5282823405
  O        11.5118802810       -4.0227628782       18.2558233033
  H        10.6032847661       -4.3414897248       18.2149066109
  H        11.3763788473       -3.0826955995       17.9102669984
  O         2.7767269194       -4.7949771214        6.1154710890
  H         2.3063232245       -5.3998821867        5.4504617896
  H         2.3835100529       -5.0448316399        6.9670400486
  O         6.5816482603       -9.6400120285       14.9848659144
  H         7.3060541332       -9.0558384813       15.3487023814
  H         5.9011029405       -9.0332805119       14.5646397907
  O         2.2799863767       -2.4501262414        9.7083555874
  H         3.0106609262       -3.0702369694        9.6370947379
  H         2.0216611325       -2.4205098345       10.6828505890
  O         7.8730764488       -1.4385908930       16.2624406679
  H         7.6352730054       -0.7595165251       15.5924680550
  H         7.1405910193       -1.4145061237       16.9310101609
  O         5.0161663714       -6.7989290765        7.9743306776
  H         5.1703599558       -7.0987710227        7.0412800139
  H         5.9158470633       -6.8915245934        8.3013178430
  O         6.0626162528       -2.2210829841        5.9724520003
  H         6.0851743431       -3.2043716337        5.7198709872
  H         6.5492199467       -2.1745599864        6.7954016550
  O        19.7806420299        0.7760683637        6.4792277919
  H        19.4506396919        1.3520172087        7.2514407545
  H        20.0297897896       -0.0883223747        6.8747566273
  O        12.9543376621        3.6454727875        5.2204772448
  H        12.5097440832        4.0815779148        5.9474054477
  H        13.6030388992        2.9378571698        5.5869801262
  O        11.9882980832       -4.4429421504       15.6574144090
  H        12.8240602356       -4.1525924942       15.1984421981
  H        12.1287226399       -4.3895889785       16.6489093280
  O        14.0752861607       -5.9307874108        8.5387730535
  H        13.3302734014       -6.4371417078        8.1138349981
  H        14.6878613206       -6.5582734625        9.0248637306
  O         9.0942561417       -5.2122277455       18.3611527344
  H         8.9140732985       -6.1432157310       18.1878481100
  H         8.7837014117       -4.6580121309       17.5623701316
  O        11.6512496721       -7.2111345692        7.0615840449
  H        11.1876633874       -7.8541880218        7.6827818099
  H        10.9398197447       -6.9864701206        6.4389823946
  O         1.9974450388       -4.6469656310        1.4637108433
  H         2.9360384674       -4.8538291159        1.5342520214
  H         1.7119665879       -4.7676257986        0.4812315210
  O        10.4826687059       -1.4612591968       17.2999598607
  H        10.7603655813       -0.7830790927       17.9770807213
  H         9.4914666987       -1.4883382969       17.2980523305
  O         8.9404424423       -3.9860212843       15.8058794556
  H         9.8310283257       -3.6281395539       15.9015781827
  H         8.3458674965       -3.1092021800       15.8153604496
  O         4.9289033689        4.9769032824        5.3105738691
  H         4.0979560966        5.3077722509        4.9228816485
  H         5.0462439860        4.0948207342        4.9813183759
  O         9.3788522380       -0.9697691449       12.4564126552
  H         9.8802209801       -0.9563396028       13.2756819930
  H        10.0240640066       -1.0182187856       11.7251719919
  O        15.1843860310        1.9240489876        6.5443322751
  H        16.0061145743        1.7745157808        6.1110377279
  H        14.8888610397        1.0573515992        6.8795047346
  O        11.4725496256        0.5430531414        6.5442861301
  H        11.0009037319        0.3788070463        7.4119670253
  H        12.4407529212        0.4363242077        6.7820411285
  O         9.8218140524        1.0345793871        9.1564278351
  H         9.1840372839        0.3342089704        8.9044721951
  H        10.4897858617        0.4803226534        9.6650486584
  O         5.2500732317        1.8517530039       17.2520976018
  H         5.6767684779        2.1768958055       16.4013208867
  H         5.9374390222        1.4065402007       17.8011414397
  O         4.1495369416       -0.0404609055       10.0669366673
  H         4.9329164360       -0.7056255207        9.8656833807
  H         3.2720460420       -0.5094945042        9.9357540218
  O        17.8272251351       -4.7271709635        4.9980238602
  H        18.1112837868       -5.6624298190        5.1612812673
  H        16.9699614942       -4.6085825151        5.4953827108
  O         4.6847758158       -4.0000658569        8.9248251238
  H         4.6575045027       -4.5391086813        9.8330973658
  H         4.7886364279       -4.7977220659        8.3440977656
  O        -0.3080706117       -3.2625873171        8.6167751134
  H        -0.3716191835       -3.6399924401        7.6861479541
  H         0.4895797712       -3.7528324215        8.9482060289
  O         7.0973732725        2.5960054863        8.5011488380
  H         6.1987740710        2.7259267704        8.7375176009
  H         7.5458026205        2.4184319311        9.3651317563
  O         9.4245283732        2.1425319492        5.2394169282
  H         8.7456338527        1.4815214830        5.6893639157
  H        10.2400672122        1.6263444934        5.4253029257
  O         7.2234733856       -7.2165425493       12.1154287181
  H         7.3517440500       -6.3001549787       12.5903420313
  H         8.0910310207       -7.6738528537       12.3657888496
  O         6.9725146250       -4.7414722034       13.4692061176
  H         7.7288112675       -4.5605039795       14.1613672059
  H         6.1757673763       -4.8698013484       14.0262428842
  O        -1.7414327965       -6.2165002034       14.4551765411
  H        -1.7601403726       -5.8929703617       13.5219335384
  H        -1.3203581066       -5.4939871278       15.0018288071
  O        13.1856349007        2.4893251146       12.9292788319
  H        12.7806358835        3.1012366273       12.1936587598
  H        13.0244428592        3.0005335090       13.7253025677
  O         6.9203100906       -2.4114404907       12.1322764532
  H         7.0817216785       -3.3685975330       12.2353402844
  H         7.8369339115       -1.9669175279       12.3084326591
  O        14.7914463326       -6.6588547737        4.0175389588
  H        14.2344179098       -7.4210205920        4.3316129319
  H        14.3229012759       -6.3456599264        3.2364570384
  O         0.0019923144       -8.4160206036        2.5131544344
  H        -0.5833305797       -7.6063834312        2.5223464868
  H         0.1121728810       -8.6813337654        3.4564229777
  O         5.0916971977       -7.7037518043        1.3804953754
  H         4.2985710210       -8.0735973936        0.9032128141
  H         5.7221458578       -7.6109358995        0.6456034801
  N         4.7319424116       -1.0051019709       13.5008906919
  H         5.0568745602       -0.0088116074       13.3686975060
  H         5.4563957440       -1.6838500443       13.0695013501
  H         3.8303592002       -1.1296202325       13.0197453782
  H         4.6084614592       -1.1966609719       14.5147666370
