     194
 CELL 12.4294 12.4294 12.4294 90.0 90.0 90.0 i =    26020, time =    13010.000, E =     -1097.1243186269
  O       -11.1211960331        4.0176885293        5.8355594900
  H       -10.6645139233        3.1649944981        5.6529299177
  H       -10.6542585505        4.7223179101        5.3563059935
  O        -0.3539031878       -8.0936065668        3.6390874647
  H        -0.4516376710       -7.1091226981        3.6681661051
  H         0.1571871941       -8.3874551314        4.4171568980
  O        -5.8266658933       -7.5670964307        6.1866016665
  H        -6.0566178522       -6.5933622655        6.1275218817
  H        -4.9227242441       -7.4631248577        5.7578639173
  O       -12.8346173675        1.3117567355        6.0339391371
  H       -12.2139822649        0.7418726262        5.5378073239
  H       -12.3224844858        1.4534888510        6.9008979862
  O       -18.7283225028       -4.8418383955        5.7471353466
  H       -18.9796549965       -4.3154662610        6.5713164695
  H       -17.9164481311       -4.4892779436        5.4433898717
  O        -4.6602659745       -1.4573279616       13.5813882141
  H        -4.0531831562       -0.7461794067       13.9346906361
  H        -4.2281728540       -1.6212343954       12.6557639566
  O        -6.2482537697        4.3285966219       -3.7776029118
  H        -5.4353765306        4.0959901245       -3.2591805582
  H        -5.9788162588        4.3785236181       -4.6962292000
  O        -3.4659594799        5.6539251954        4.9669773436
  H        -2.6492223436        5.3596140416        5.4722102608
  H        -3.5614431847        6.6456420253        4.8333446919
  O       -12.4495934953       -3.9851949465       -2.3667907609
  H       -12.8307153522       -4.9339863829       -2.5640826004
  H       -12.2700760458       -4.0174094227       -1.3692590415
  O        -5.4154338389        2.1964383493        0.0707065467
  H        -6.0697998355        1.4944522083        0.1138865053
  H        -4.6291690433        1.6671275410        0.2937803124
  O        -3.8459445856       -2.8013469997       -1.2041951048
  H        -3.0892089416       -2.6586941071       -1.9006899112
  H        -3.5314382510       -3.5388562733       -0.5879678839
  O        -9.4671735026        5.1077032655        3.9538225216
  H        -9.7876962376        4.9690560904        3.0464607213
  H        -8.5703422578        4.5887360769        3.9658497677
  O       -14.1388610239        4.5367631003        6.8708839638
  H       -14.6294503259        3.7584960413        7.2537076719
  H       -13.3164589716        4.1204867824        6.6149883219
  O        -6.1255011665       -3.3147294519        2.7141349365
  H        -5.3277291088       -2.8668992116        2.3193219885
  H        -6.2246536845       -2.8234731427        3.5861286430
  O        -6.8944068096        0.3250953009        1.7886244545
  H        -6.5638759340       -0.6126054017        1.5283439941
  H        -6.4367367434        0.6236078531        2.5655161533
  O        -0.5322347347        1.4707958358        3.0160947450
  H         0.1421413403        0.7675269603        2.8000438974
  H        -0.3793214192        1.6460526807        3.9862549219
  O        -2.9331572818        0.8381138456        1.1217166917
  H        -3.2389189673        1.5019000327        1.7578288608
  H        -1.9829468312        1.0917631276        0.8823602764
  O        -4.2831402698        7.2657020853        8.8403157244
  H        -4.7573442037        6.5163990109        8.4696464312
  H        -4.1636438418        8.0155433041        8.2313633085
  O        -5.7644456768        6.8217122271        1.4533737026
  H        -5.5949718539        5.9300365954        1.8439561995
  H        -5.8286530070        7.5721141976        2.1282474182
  O       -10.6630031601       -6.8032423615        8.0387756817
  H        -9.6759520102       -6.6687764600        8.1386134485
  H       -10.7027688279       -7.4144375397        7.2422531269
  O        -2.9849828902        1.9905847761       -4.6067741120
  H        -2.1948002975        1.4178247205       -4.3660595782
  H        -3.3806205677        2.3735658132       -3.7592635450
  O        -8.6413774721        7.7283445566        3.9723842162
  H        -7.7407545884        7.7301775157        4.4092949381
  H        -8.8446728902        6.7860250736        4.0238605939
  O        -0.9897042956        0.5016780803        9.3255624395
  H        -1.2113105322       -0.4763259037        9.6286513458
  H        -0.0594770824        0.4179082436        8.9591052114
  O       -10.4690446397       -2.8174304979       -4.0842316281
  H       -10.0358735577       -2.2408619378       -3.4505953847
  H       -11.0717937979       -3.3386658712       -3.4627165836
  O        -9.7085306992        4.0143401241        0.4688939672
  H        -9.3438147896        3.2994066066        1.0299023411
  H        -9.1875818179        4.8390372342        0.5387932025
  O        -2.1008163444       -0.7016369002        3.9013755355
  H        -2.2706723547       -1.4126942611        3.3075845089
  H        -1.9153792374        0.0566975066        3.3283337313
  O        -0.0843324385       -5.4392632017        4.0353838727
  H         0.0730499260       -5.4590988601        5.0176961995
  H         0.8151048411       -5.1231592614        3.6778231330
  O        -4.7485246180       -0.0165428634        6.7323590628
  H        -5.1945648885       -0.2577631181        7.5917643274
  H        -3.9864291459        0.6142786700        6.9600340228
  O       -12.1855255870       -3.5390902928        0.5280174479
  H       -12.9620123528       -3.4983424627        1.1801563820
  H       -11.4136262471       -3.7725652789        1.0812558791
  O        -7.3208850975       -3.4921861128        8.0952506728
  H        -6.8664043961       -3.2944097344        8.9633423240
  H        -8.2777194223       -3.4367825914        8.2360996443
  O       -11.2687511359       -0.6621931742        4.8618768791
  H       -11.6058943353       -0.8229733495        3.9268889604
  H       -10.8511304711       -1.5187603698        5.1727488693
  O        -8.0608512550        2.2697138219        8.9348968364
  H        -7.4386817234        3.0023961069        8.8076215108
  H        -8.8871108917        2.7398623047        9.1173996180
  O        -7.9114339801       -2.4944369991        0.6823896806
  H        -8.8836016596       -2.5742290064        0.8424928533
  H        -7.4572721463       -2.7448576263        1.5400858782
  O        -9.5192965704        1.4032444225        1.9585881813
  H       -10.1518122341        0.6674079402        1.7447406964
  H        -8.6490738006        0.9324160208        1.9412070520
  O         3.3918816967       -1.2738174608       -2.0458611478
  H         2.6542883047       -0.6877040299       -1.7349945672
  H         4.0046415821       -1.4701574196       -1.2702541000
  O         1.4324054659        3.5413092206       -2.7778664416
  H         1.8128480888        3.5554456255       -1.8841568838
  H         1.3427105835        4.4721525864       -3.0893887107
  O        -1.7810520497       -2.2831636393        9.4727628322
  H        -1.5078175319       -2.2343366888        8.5764706845
  H        -1.1694214270       -2.9752107788        9.8417811131
  O        -2.0340653581       -3.9280804217        2.3713676293
  H        -2.5657788173       -4.4424623341        1.6576111130
  H        -1.4967698920       -4.5436715476        2.9268576226
  O        -6.5632934211       -2.6960588078       10.6039398939
  H        -5.5833470830       -2.8256459798       10.7832844391
  H        -7.0793516724       -3.1266278115       11.3361812805
  O        -2.0637501848       -7.4683422670       -0.9627814199
  H        -1.4443001132       -7.9632482064       -0.3377208878
  H        -1.5941697484       -7.0319610397       -1.7200608426
  O       -13.1568347339       -1.8498073539       -5.7491236917
  H       -12.2223650771       -1.7814461015       -5.4913691533
  H       -13.3535470921       -1.0192228478       -6.1703966207
  O        -3.9377980045        3.4171199451       10.2190146488
  H        -3.3961087209        4.0500824843       10.7407260251
  H        -4.3085137091        2.8085549622       10.9190519307
  O        -6.4930291650       -0.5226432845        8.7233457645
  H        -6.5274170362       -1.1304833418        9.5476473692
  H        -7.1185602316        0.2287738745        8.9221240807
  O        -8.1755194727        6.2736705911        0.1098841906
  H        -8.1128394203        6.3030276223       -0.8856742696
  H        -7.3104433045        6.5496439747        0.4903476658
  O        -3.2832309567        3.4030075331        3.1622344457
  H        -3.3281409025        4.2594395380        3.6332588720
  H        -2.3003501798        3.2097951665        3.1742870290
  O         0.0179726344        3.8236528946        0.9813024969
  H         0.9860016011        3.8303926486        0.9197668741
  H        -0.2826753100        4.0243587602        1.9092905797
  O        -0.3652461860        1.1699759458       -0.2505586878
  H        -0.3406767599        2.1483205620       -0.1855031758
  H        -0.4509191583        1.0923883553       -1.2297844477
  O        -5.4909393173        4.0583188664        2.0374431611
  H        -5.5937744691        3.5397658634        1.1984556884
  H        -4.5390047522        3.7521209828        2.2440083482
  O        -8.0691891245        6.4386497327        9.5333861109
  H        -7.6021953043        7.0914285977        9.0099582256
  H        -7.3882161946        5.6998023230        9.4703112212
  O        -9.6612394511        1.8920871554        4.7661022448
  H        -9.6240741538        1.8249629646        3.7730975410
  H       -10.0434690385        0.9838387345        5.0338141931
  O         1.5198371202        0.7074083069       -4.1000556244
  H         2.3759586821        0.3760131546       -4.4455197426
  H         1.7371061652        1.4692616742       -3.5284476259
  O        -9.8890696683       -4.5233998754        1.6390592364
  H        -9.3294916164       -4.2053935231        2.4205109356
  H        -9.3797312750       -5.1262853706        1.0631025064
  O       -11.5713795714       -0.5834562740        1.3826532268
  H       -11.5123851130       -1.4359048890        0.9423664123
  H       -11.9043987775       -0.0021906319        0.6305893034
  O        -7.1745560401        3.8092848712        4.1886465936
  H        -6.6315884479        4.4068952025        4.7815550362
  H        -6.5279300557        3.8191526566        3.4032204255
  O        -3.1658989772        7.1882468339        0.3804944844
  H        -2.8247629168        6.4900499001       -0.1907835652
  H        -4.0361997651        6.8800964069        0.6588076999
  O        -6.5887479877       -1.6110612504        4.7782245181
  H        -7.2765746599       -1.8591016180        5.4012692604
  H        -5.8185836345       -1.2856868893        5.2706228261
  O        -8.7045754506       -0.7457529055        6.6741674377
  H        -7.9960900447       -0.8425858947        7.3911949112
  H        -9.1809710444       -1.6320106755        6.5990275628
  O       -15.8874175702       -2.4735467392        6.5098434026
  H       -14.9144550747       -2.3040428201        6.4998018828
  H       -16.3094513430       -1.6049277659        6.6485201054
  O         0.6696517310        7.6076613326        6.6755793757
  H         0.8992730518        6.8190117663        7.2526356751
  H        -0.0706776046        8.0665106622        7.1831329468
  O        -4.8082477659        1.0755220372        3.7865915449
  H        -4.1555758723        0.3786907240        3.9884770462
  H        -4.3281537186        1.9442413897        3.8211641926
  O        -1.6287609084       -5.9098332161       -3.2370756339
  H        -1.8256325565       -6.5283579208       -4.0153162230
  H        -2.5097132625       -5.4342166545       -3.1372727130
  O       -16.2632396664       -4.1109272688       -7.9377064669
  H       -15.6965088247       -4.0000131653       -8.7413253671
  H       -16.1325926109       -3.3818515286       -7.2271657844
  O        -9.9085878765       -2.8836670405       -6.7387421293
  H       -10.3699614689       -3.6400692470       -6.2399865251
  H        -9.3421627849       -3.5166344802       -7.2307410976
  N        -7.0400100100        1.6824650991        5.9983469311
  H        -7.0798644385        2.4002331785        5.2319607052
  H        -6.0924214468        1.3497290249        6.2362250928
  H        -7.6481508923        0.9386092862        5.6879989421
  H        -7.5041277533        2.0207449252        6.8514386654
