     194
 CELL 12.4294 12.4294 12.4294 90.0 90.0 90.0 i =    40420, time =    20210.000, E =     -1097.0982145052
  O        -3.0991713627        2.3181978166       10.1774642659
  H        -3.5146709946        2.7009136103        9.3717333944
  H        -2.1552607478        2.3501549277        9.9265465338
  O         3.4481617150       -9.9144766794        5.9471922126
  H         2.8369986550       -9.9316460353        5.2078581103
  H         4.3218773350      -10.1755891790        5.4716082038
  O        -0.3043430243       -9.4874125592        9.7696621741
  H         0.0169690831       -8.6460116802        9.5160978185
  H         0.5371971770       -9.9376437004        9.6887046300
  O        -5.6861575912       -1.1535989535       10.6952405215
  H        -5.7428998888       -2.1374707857       10.9189246045
  H        -6.1119843838       -0.6607577262       11.4165710818
  O       -11.9587094409       -6.9336963014        9.0389749586
  H       -12.0499127779       -6.6635918590       10.0212347536
  H       -10.9794610907       -7.2274986242        8.9009826919
  O         3.6781484105       -3.4623065104       18.2631307358
  H         3.7057644602       -2.6584386479       18.9274594027
  H         3.2556271456       -2.9814125907       17.4697274856
  O         0.0443539298        2.9828655806       -0.0122603654
  H         1.0321921442        3.0186503910        0.2520596321
  H         0.0381419608        2.7412959038       -1.0241657405
  O         3.2479777409        4.8722865992        8.3568680253
  H         3.5981931877        4.1966316204        7.7238062440
  H         3.3160510541        5.6551428800        7.7830537262
  O        -3.9818545576       -4.5299337084        2.6571452431
  H        -4.4879075348       -5.2805793140        2.3122812739
  H        -4.5222429705       -4.4403421667        3.4795483111
  O         0.8041629585       -1.4368176469        4.5478991166
  H        -0.0287082883       -1.5353371395        5.1162458351
  H         0.7936913300       -1.9695404709        3.7165727421
  O         2.2845333409       -5.4006059294        1.5705133241
  H         3.2065603560       -5.1918771077        1.2954529246
  H         2.3254022123       -6.1856261619        2.2327106244
  O        -2.8127039735        3.5083625090        5.3693637844
  H        -2.1111712949        4.1712440315        5.1948848990
  H        -2.4428026247        2.6503059076        5.6879620633
  O        -6.7962028240        0.7211326390       12.8496941137
  H        -7.7280595331        0.8698468636       12.6186473137
  H        -6.2671770961        1.4983704398       13.1591675993
  O         2.1399325063       -5.6465459337        6.5998192313
  H         2.6783046912       -4.9322933051        6.1189423776
  H         1.4961580012       -5.1340004489        7.1728545328
  O        -0.9566619784       -1.3768965554        6.3933607018
  H        -1.6419806597       -2.1235976633        6.4760378659
  H        -0.5166283801       -1.0680037860        7.2436845083
  O         4.3910779982        2.1336343651        9.4847116588
  H         4.6052749886        1.5374744395        8.6839069339
  H         5.2106061135        2.3697462598        9.8790524464
  O         3.3012391683       -1.9620456407        8.3823051869
  H         2.5235557693       -2.4283463968        8.6694741872
  H         2.9929094811       -1.0103432563        8.2499393832
  O         2.7154581506        3.3823583858       13.3012765696
  H         3.0227247689        4.0261361110       12.5805705090
  H         2.8066061825        3.7885568987       14.1800509049
  O         1.0705241719        4.4749696983        5.2811141533
  H         0.6707190322        3.7635930381        5.9734037126
  H         1.5655367507        5.1670339702        5.7969856724
  O        -3.8546963062       -7.8281736723       11.9313020420
  H        -3.3931718661       -7.6590175519       12.7804054846
  H        -3.3307884739       -8.5323545834       11.4402856504
  O         2.6585409708        0.6518061196        0.1644342798
  H         2.2674309763       -0.1743355209        0.5859843353
  H         2.6649389894        1.5090798123        0.7075115638
  O        -2.2530131442        6.6584612756        7.7394313234
  H        -1.2817646650        6.3428807765        7.6555335294
  H        -2.7840679276        5.9063017974        7.4479304216
  O         4.9458145873       -2.0147590724       13.7233750366
  H         4.1403284483       -2.0524196279       13.1459089893
  H         5.6425808275       -1.3979948425       13.4192642828
  O        -3.5446335782       -2.2680996420        1.1895773854
  H        -2.7296979384       -2.1301301693        1.7510916279
  H        -3.7398137299       -3.1896875187        1.4103595893
  O        -4.6113770089        2.2480945587        3.3932847079
  H        -4.7052093876        1.2753210214        3.1053562273
  H        -3.8034706351        2.5488547440        3.8202102329
  O         5.0058157573       -4.1147600213        8.5573623414
  H         5.1897454005       -4.7378117297        7.7386338232
  H         4.5213453325       -3.3281443526        8.3410332218
  O         8.0643134194       -7.3829710043        7.7241984910
  H         7.6234394259       -7.6922004974        8.5289228322
  H         8.0440829091       -8.1547478396        7.1704980952
  O         3.0948838546       -2.3049089702       11.7661941043
  H         2.1277511776       -1.9588447737       11.7209651684
  H         3.6050951453       -1.8117804265       11.0339125609
  O        -5.0560130189       -3.7915142272        4.9132977932
  H        -5.4478040116       -4.4541959744        5.5621130928
  H        -4.1799782115       -3.7208070493        5.3529703217
  O         0.3441808621       -5.5427601595       11.8070333034
  H         1.0787881674       -5.4868635629       12.4429975280
  H         0.3174599611       -4.6444170792       11.4473899016
  O        -6.0766059304        0.0630038269        8.1850635513
  H        -5.9841390531       -0.3716499296        7.2754938572
  H        -5.9105622682       -0.6617362215        8.8275020616
  O        -1.1175907427        0.5383407867       13.0486458221
  H        -0.7384522564        1.5095299462       12.8074988893
  H        -1.4789688130        0.4325236629       13.9503591589
  O        -1.4756358527       -4.3938898777        3.5818353772
  H        -2.3633550595       -4.3027363765        3.1485708124
  H        -1.2552205545       -5.4099717389        3.6738246981
  O        -2.8752520967        0.6099641634        5.4906962817
  H        -3.7295749774        0.1341653264        5.5579571825
  H        -2.1381197106        0.0197994545        5.6953941279
  O        10.7596949498       -0.5790976592        3.0106885234
  H        10.0420372315       -0.3422423572        3.6359883609
  H        11.5379964749       -0.6331075997        3.6036234332
  O         6.7672408846        3.2704888035        1.2189492644
  H         7.2407985008        2.9080032872        2.0653821994
  H         7.3811507570        3.3529191853        0.4577584983
  O         4.9129333842       -4.7162067792       13.1314778208
  H         5.3406410665       -4.5427409906       12.2205585983
  H         5.2794576723       -3.9963511932       13.6376810431
  O         6.0327298549       -5.7866987628        6.6138235971
  H         5.5193955121       -6.2970615416        5.9673787402
  H         6.6196965273       -6.3352206298        7.1685256631
  O         0.8314634075       -3.3089251213       14.7005471861
  H         1.5505441306       -4.0072949739       14.5832620951
  H         0.0605068237       -3.7589329039       15.0743541400
  O         5.3224248089       -7.2107590559        4.4349885800
  H         5.6182552886       -8.0808457361        4.8515670134
  H         5.9798822006       -7.0097838801        3.6963511539
  O        -5.7446008220       -3.9871971017       -1.6412581737
  H        -4.8595719321       -4.4930836584       -1.8170802839
  H        -6.1673604756       -4.0196949587       -2.5879813466
  O         1.8303431889        1.3580997820       15.7724863480
  H         2.6725856991        0.8998081303       15.7727587219
  H         1.1924303802        0.6641862221       16.0427893075
  O         0.4510932521       -1.5093385370       12.6512941030
  H         0.5367843208       -2.0460365487       13.5069525551
  H        -0.0803215368       -0.6844170900       12.9182914943
  O        -1.1033487231        5.4963971298        4.0818708008
  H        -1.0805665769        5.1022950772        3.1485065106
  H        -0.2117377518        5.2459827247        4.5336027033
  O         1.8204602316        1.3206449163        9.8184426277
  H         2.0533618690        1.1771082703       10.8094575518
  H         2.6459794586        1.5182938007        9.3712403181
  O         6.0688151359        2.8060529822        5.2520158106
  H         6.6752055772        2.5563068040        4.4666891366
  H         6.4900974848        2.3900225919        6.0476121430
  O         4.2946600854       -0.0617504796        3.4107247156
  H         5.0966487513        0.3897537021        3.1745527459
  H         4.3812299352       -0.7978399309        2.8372100826
  O         1.8703405981        0.2804652107        6.9303341230
  H         1.4790907238       -0.3111859602        6.2820470259
  H         2.5154272247        0.8228341592        6.4494909450
  O        -1.2076762346        5.5040045043       13.6414666704
  H        -0.8629580150        6.2184883805       13.0358285048
  H        -0.7737179071        4.6920755478       13.2587831000
  O        -4.3468871168        2.0452406627        7.2414043004
  H        -3.5592475018        1.6755714566        6.8501244267
  H        -4.6155867937        1.1636741995        7.7470580490
  O         7.5559110575       -0.3512480927        2.7739550211
  H         7.0334402643       -0.8043017372        3.5017888712
  H         7.8840818531       -1.0517064172        2.0828200317
  O        -2.5752728758       -3.5380922208        6.0260084521
  H        -2.4955890042       -4.2123793984        6.7431922849
  H        -2.1151003919       -4.0066643282        5.2011857863
  O        -5.9368466101       -1.0818575879        5.5050159039
  H        -5.7837799117       -2.0447014606        5.3350741316
  H        -6.8897722573       -1.0183421510        5.1913947423
  O        -0.1220039923        2.5333957597        6.7859175709
  H         0.0466536795        2.5944898137        7.7602107550
  H         0.4874635866        1.8017776736        6.5485334701
  O         2.8939360399        4.8807488023        3.1271004836
  H         3.7887636216        4.9706757862        3.5482489787
  H         2.2964974358        4.5439853110        3.8552186295
  O         1.1114984951       -3.9427238926        8.8732092379
  H         0.2771368897       -3.8224180047        9.4417195586
  H         1.7363637305       -4.4754315432        9.4346590044
  O        -0.6522514658       -2.9716773191       10.7822855116
  H        -0.3235155103       -2.3550053373       11.4752643999
  H        -1.4422515054       -3.5263429096       11.1370959158
  O        -9.3009671943       -4.9102683595       10.6471048336
  H        -8.5057809298       -4.7916487511        9.9981003793
  H        -9.1905554715       -4.1387997746       11.2769775635
  O         6.3192816340        4.4860840504       10.4140746660
  H         6.8946356351        4.2701860662       11.2072711556
  H         5.4992249573        4.9437469202       10.7794497134
  O        -0.3401967367       -0.5744567668        9.0136950975
  H        -0.1531222689       -1.3987464847        9.5210991973
  H         0.5220150182       -0.0161764226        9.0052364895
  O         6.5412466077       -6.6524173722        2.0820232930
  H         6.4364419932       -7.5548998592        1.6383025541
  H         5.9091929218       -6.0058733942        1.6579663325
  O        -8.8197266890       -7.4951178822       -1.2047762504
  H        -8.9535354750       -7.8625569538       -2.0833816488
  H        -9.0175762939       -6.5256560525       -1.2796410274
  O        -3.1860648932       -5.1975469750       -1.9859844134
  H        -3.1030226177       -6.0679877328       -1.5438695975
  H        -2.8589557065       -5.2520006508       -2.9550776097
  N        -2.8452283751       -0.4896410577       10.9681830447
  H        -2.7823487484        0.3740288198       10.4007398363
  H        -2.1823150359       -1.1712836786       10.5963138111
  H        -3.9076998707       -0.8323622684       10.9922194869
  H        -2.4834217198       -0.1655195603       11.8901156182
