     194
 CELL 12.4294 12.4294 12.4294 90.0 90.0 90.0 i =    72820, time =    36410.000, E =     -1097.1658523465
  O        12.1704124675        0.3111922884       11.9155911979
  H        12.5477446594       -0.6088676810       12.0409806133
  H        12.9543143909        0.8865199749       11.8872856464
  O        17.1776083707       -8.8180105458        9.6912467272
  H        16.8060413869       -7.9550618640       10.0236425325
  H        16.4439560904       -9.4871649500        9.7919781236
  O        14.8004948382      -10.5566288125       11.3633248202
  H        15.1204368123      -10.0396564373       12.1512883727
  H        15.3149692025      -11.3552742088       11.2440194342
  O         9.7653143414       -3.1225541629       13.9504083738
  H         9.4415587511       -4.0288391711       14.0901103711
  H         8.9298127244       -2.6012038599       13.9831273271
  O         3.8568874146       -9.8794352948       13.7114556644
  H         4.1784157816      -10.3046168772       14.5406396621
  H         4.6733253860       -9.5253764218       13.2955511506
  O        19.0817725172       -5.5419182455       23.2520986454
  H        19.7930330550       -6.0153929264       22.7579946126
  H        18.8884938543       -4.6455728626       22.8351749056
  O        13.3237451117       -0.4258672644        3.1109786905
  H        13.1504908024        0.4760413316        2.8324709132
  H        14.2430624969       -0.6159675709        2.6178675718
  O        18.8127402738        2.9439615985       11.8494687379
  H        18.1964993310        3.0384845980       11.0628589418
  H        19.0687682180        3.8672747432       12.0162290930
  O        11.0723844790       -7.0356331775        3.1158663132
  H        11.2424781208       -7.8851465352        2.6108115670
  H        10.4219331081       -7.2678281000        3.9111360238
  O        14.4980025991       -2.2722934117        9.6117998018
  H        14.0161706526       -2.5030551238       10.4390395209
  H        14.8876544005       -3.0522253907        9.2634771088
  O        14.8715945026       -7.9087124608        4.0178517353
  H        15.8186464620       -7.6243979726        3.7914910267
  H        14.8332405635       -8.0675466038        4.9901845161
  O        10.6755278721        0.7121796933        9.5083862675
  H        10.2257845173       -0.1767895681        9.3523968844
  H        11.1286872954        0.6087550401       10.4055245576
  O         7.0713597876       -1.6322106428       14.1705710127
  H         6.4456503044       -1.5071800656       14.8547938349
  H         7.4037491727       -0.7561874042       13.9008707212
  O        16.3461516477       -6.3711058096       10.6997368248
  H        17.2005798609       -6.0420762033       11.0801364076
  H        15.7751493121       -6.6639302573       11.5096459583
  O        13.0185842308       -2.3162250523       12.0086120952
  H        12.2641646271       -2.9349986848       11.6707293609
  H        13.5326474387       -2.8609333125       12.6635658730
  O        17.5981924100       -2.2475781037       12.4011601173
  H        17.9872767551       -2.6249737480       11.5237896360
  H        18.4334699972       -2.0569799073       12.9433539173
  O        16.8620751755       -4.9500449984       13.3915026395
  H        15.8632729398       -4.6661621870       13.3470207339
  H        17.3805821767       -4.1219953405       13.3687917560
  O        17.6742840392        1.8732624141       16.2007467970
  H        18.1026190080        2.7387788482       16.1293291628
  H        17.1154195506        2.0333759735       16.9891900317
  O        15.0919703855        4.2677967783        7.3976947972
  H        15.6723553872        3.4556651597        7.2571973947
  H        14.3550910805        3.8832287860        7.9358481624
  O        10.2491934821      -11.5223133784       13.8971016343
  H        10.8699799475      -11.8980427656       13.2305890359
  H         9.3455567198      -11.4627574779       13.5726181758
  O        17.5778719281       -0.9678497522        3.7779218503
  H        17.5038120640       -1.3820560678        4.6743287970
  H        17.8811289305       -0.0803287148        3.9989280381
  O        11.2052824309        3.9527191657       11.1465826924
  H        11.5290482566        3.3323047185       10.4754425663
  H        10.2551292135        3.7184131138       11.1512996285
  O        20.0635308135       -1.8647765835       20.4919879529
  H        20.9132093586       -1.6602632311       21.0264675640
  H        20.2498451879       -2.6103645540       19.9435232666
  O         8.4012401427       -3.6399496761        5.8128193274
  H         8.9086919322       -2.8504637511        5.5455604591
  H         9.1027052998       -4.0845491404        6.3412144261
  O        10.1594324177       -1.5552345622        5.3547731080
  H        10.6341046085       -1.1128526477        6.1415638969
  H         9.8775202845       -0.7347940758        4.8119743746
  O        19.2865412985       -7.0019326676       12.9059180735
  H        19.1460972802       -6.2378284315       12.2991931089
  H        18.5406175080       -6.9645752234       13.5986696240
  O        21.2684770998       -9.7517976919       10.1261575736
  H        20.4503339177       -9.8962715033       10.7688905620
  H        21.8962868892      -10.5666661634       10.0218641109
  O        16.5869006286       -3.9031524792       20.5954059367
  H        16.3943717399       -3.2083090919       19.9371627366
  H        16.7050451538       -4.7427838674       20.0784756138
  O        10.0863770407       -5.6692851129        7.5326468797
  H         9.3274311175       -6.0618146597        8.0666289103
  H        10.8004273871       -5.6584605873        8.1692511846
  O        13.1157069924      -10.0190879301       15.9490499867
  H        13.8519094444       -9.3976192919       16.1496979193
  H        12.7612595384       -9.6232569566       15.0782430409
  O        10.8513356963       -3.6582925110       11.0648604628
  H        11.0244655363       -4.5200786163       10.5474549624
  H        10.2090785658       -3.7008433431       11.8186108349
  O        14.1667350974       -0.2856067227       18.2578803363
  H        13.8950783119       -0.3040341008       17.3516772770
  H        13.3248963756        0.0890805184       18.6230932449
  O        14.1677692903       -5.6531479693        8.9272452769
  H        14.1998917270       -6.2717595495        8.1461768457
  H        15.0482719623       -5.6148188790        9.4266936335
  O        11.9990764492       -2.7139994846        7.9069983151
  H        12.2103998230       -3.4398979638        7.2764785314
  H        12.8886389676       -2.6347915891        8.4472150884
  O        24.1431079712        0.3348725507        6.8175187488
  H        23.9395804712        1.1924440084        6.4227018751
  H        24.0000153784        0.4591245380        7.8321226786
  O        19.6256497871        3.3933418820        5.3041175439
  H        19.0395682670        3.7390004244        5.9679417232
  H        19.9937379173        2.5835359147        5.7602640902
  O        19.6874257170       -5.9373788917       16.8251343808
  H        20.1567500428       -5.7765164310       15.9598482846
  H        19.9428085255       -5.1719475829       17.3021560504
  O        20.5848717884       -7.1814356226        9.1951911691
  H        19.8187602168       -7.3692064640        8.5018631169
  H        20.9894854239       -7.9979489710        9.5155674554
  O        16.6247449269       -6.1090615961       18.7796726110
  H        15.8959432023       -6.6921490558       19.0686778891
  H        16.3122846298       -5.6687803028       17.9441931461
  O        18.5414995621       -7.8463576940        7.3983044225
  H        17.8656479010       -8.2229565009        8.0639172698
  H        17.9799184415       -7.0513922902        7.1337104523
  O         8.9215295742       -5.5705760631        1.9804834961
  H         9.6341278181       -6.2463751500        2.1687726161
  H         8.4099516128       -5.9281006743        1.2087248920
  O        16.3785830328       -1.8683056290       18.6300400469
  H        16.9691853068       -1.3232186933       19.1842317711
  H        15.5586287853       -1.3346789592       18.4082260216
  O        15.7687566102       -4.0684725593       17.1320975004
  H        16.0733612198       -3.5283437755       16.3771067455
  H        15.8401098723       -3.3472607112       17.8574974838
  O        10.7772544853        2.4573807709        5.1151939867
  H        11.6813272685        2.6874547547        4.7519325370
  H        10.2745122053        3.3179595550        5.1802095916
  O        15.8380581205       -1.4250755330       14.3195396102
  H        16.4450735375       -1.2545136652       15.1136614099
  H        16.4626836431       -1.6879871838       13.5773605240
  O        19.5245174257        0.1169779563        5.7638037980
  H        20.2358895399        0.2615006588        5.0571618100
  H        19.8439171759       -0.6982968486        6.1588148297
  O        17.4194849450        0.0556159216        8.1685357765
  H        17.0855252571       -0.0596715401        9.0987094447
  H        18.3594404746        0.0944406647        8.1985106036
  O        16.2711749448       -0.4470500823       10.6460695839
  H        15.6600200322       -1.2339619342       10.3433341900
  H        16.8478099131       -0.9543759729       11.3619355847
  O         9.2672765079        0.5197089909       16.4017367242
  H         9.6280833541        0.4963117678       15.4795950516
  H         9.7991131775        1.2689754054       16.9799260174
  O         9.9549545060       -1.8359283776        9.3444520588
  H        10.7125931228       -2.2110264558        8.7711455263
  H        10.1296972690       -2.3436112567       10.1878357744
  O        25.3602725533       -4.9826920487        6.2696623589
  H        25.7433504709       -5.2016176530        5.3765051788
  H        24.6536883578       -5.6383428550        6.3494316062
  O        11.7243955823       -5.9776941300        9.8685297927
  H        11.5350286789       -6.8379829861       10.3966562845
  H        12.6832775894       -5.7928544305        9.8509095823
  O         6.1010042047       -3.0531974639        9.7787690365
  H         5.2779156700       -3.2976307153        9.2223920274
  H         6.7036856487       -2.5952280709        9.1803152316
  O        13.3653051383        2.6290992344        9.0135274517
  H        13.0544949977        1.8377649224        8.4792901626
  H        14.0127760929        2.2121401542        9.6653587237
  O        16.2102728541        1.7891044156        6.3063436837
  H        15.4890661502        1.1513434220        6.1481574345
  H        16.7400524487        1.2931105088        6.9990530399
  O        14.9663403264       -7.3696069709       13.0020256852
  H        14.0657274296       -7.4797004258       12.7622028297
  H        15.2430690740       -8.0387621078       13.6730562435
  O        13.3599541699       -5.4923104207       15.7584289057
  H        14.0899201572       -6.0776519252       15.8687320130
  H        12.5848607402       -6.0748309225       15.5759831128
  O         4.8933565304       -6.7122507678       15.4610394919
  H         4.6066956349       -6.1381429051       14.6662527912
  H         5.5660435037       -6.2530294372       15.9967384070
  O        20.0271647735        1.2673920337       13.7281796237
  H        19.4432294157        1.5496381140       13.0241452482
  H        20.1945748795        2.1270572075       14.2305467803
  O        14.2862891583       -3.7672196624       13.8330407743
  H        14.0755913968       -4.4072607656       14.5621368741
  H        14.7657591014       -2.9504147321       14.2354470082
  O        22.0362084972       -7.3491168150        5.3731369342
  H        21.1003076785       -7.5915434817        5.4469620152
  H        22.2582375126       -6.8206661036        6.1963958797
  O         8.1959624775       -8.7866773516        2.6939666147
  H         7.7014822299       -8.1389329101        2.2024309538
  H         7.8340812610       -8.7359293057        3.6446713953
  O        11.5997224740       -9.2042704470        1.5093183677
  H        11.0513475543      -10.0319682077        1.6234431447
  H        11.5659416484       -9.0504425619        0.5441060209
  N        11.7924068641       -2.7978944633       15.9966552789
  H        12.4244410075       -2.0474026250       15.5981244985
  H        12.2994625258       -3.6759487810       16.1862621251
  H        11.0749566929       -2.9938816040       15.2371588203
  H        11.2580602170       -2.3483431676       16.9283473616
