     194
 CELL 12.4294 12.4294 12.4294 90.0 90.0 90.0 i =    84020, time =    42010.000, E =     -1097.1451493799
  O        17.0363422072        0.9892749520       12.7484310582
  H        17.8016056710        1.1643251326       13.3902571587
  H        17.0347761605        1.6723923482       12.0431137762
  O        22.0753553599      -11.2856485518        9.7558811952
  H        21.2521490357      -11.3162155566       10.3113957984
  H        22.3730410083      -12.2645852326        9.6299405630
  O        19.8840927610      -11.2428916630       11.4435267671
  H        19.9634146858      -10.6238509101       12.1963724850
  H        19.9418620673      -12.1952042981       11.7193864454
  O        14.2422904465       -2.4950776597       13.1387719991
  H        14.1199515837       -3.2281980631       13.7919414327
  H        13.5617350884       -1.7746499368       13.2745143365
  O         8.3006869448       -8.9494812762       13.1989696448
  H         8.1528736976       -9.4414739500       13.9939148894
  H         9.1467772744       -9.2330470882       12.7148256836
  O        25.5299413580       -6.9714811457       24.9376292364
  H        26.3693810075       -7.4859255197       25.0230142889
  H        25.4203749781       -6.8730720154       23.9405769235
  O        19.0011078974        0.5213937963        2.1354497335
  H        18.5825348478        1.0189460929        2.8306593788
  H        19.9525216079        0.8291095794        2.2241414111
  O        22.9285890753        3.0204311117       11.6312911608
  H        22.8540841643        2.2779853010       10.9811961427
  H        23.1696362235        3.8794476546       11.1899105416
  O        15.0196451780       -6.8201615661        3.7522446963
  H        15.2076962552       -7.4335078587        3.0111049985
  H        14.9527812431       -7.2860614029        4.6005458524
  O        19.4503151943       -3.1045141333        9.8822107918
  H        19.3618834510       -4.0480895408       10.1005541752
  H        20.0556051212       -2.8651402802        9.1003714417
  O        19.2456236735       -8.2173819681        4.7609896159
  H        19.9428379957       -7.8106891343        4.2678152644
  H        19.6369162936       -8.7754185838        5.5232045647
  O        16.0926921321       -0.3232436999       10.1368504211
  H        15.7356738521       -1.1204434628        9.7388853165
  H        16.8341154283       -0.5465054900       10.7233351628
  O        12.0143667984       -0.5580510858       13.4758519375
  H        11.5994252249       -0.7628417969       14.2992656859
  H        12.4537706076        0.3234975591       13.5098309893
  O        22.1322547493       -6.6457783172       11.0768951970
  H        22.8409463668       -6.0516707415       10.8435104856
  H        21.6176762242       -6.3160817173       11.7716614265
  O        17.0111820528       -2.6891980128       11.4302629521
  H        17.4974561693       -2.8636280496       10.5819598799
  H        16.0819006941       -2.5920706154       11.1787647694
  O        22.7678099994       -2.2051671464       12.2514568806
  H        23.0378908226       -2.8918754182       12.9441109222
  H        23.3987034727       -1.4664628102       12.3930115199
  O        23.6439396669       -4.2330518432       13.5792975685
  H        23.2458788824       -5.0773436578       13.2742437432
  H        23.8124081828       -4.2123763695       14.5571591576
  O        21.3003968103        1.7167883349       15.5203747942
  H        20.9161005784        1.7942764337       16.4658387262
  H        22.1387997063        2.1998874976       15.4647188933
  O        20.4306779642        4.8291028035        8.9294319593
  H        19.8253148756        4.1227614624        9.3468459838
  H        20.9927230249        5.1616578893        9.6707529372
  O        15.2074788637      -10.3505554573       14.6495112662
  H        15.7669297670      -10.7719001828       13.9947488433
  H        14.4299633879       -9.9681639938       14.1668845681
  O        23.0520526744       -1.0830345641        3.5332353799
  H        22.0711975855       -1.1973783345        3.2729642354
  H        23.1010037912       -0.2737177217        4.1050751724
  O        15.8931853919        3.7758892867       11.6332076265
  H        16.7251760895        3.5783555996       11.1072050727
  H        15.1954490120        3.1097955662       11.4147112353
  O        25.1516457313       -2.1096668033       19.9392703101
  H        25.9534729623       -2.0888167571       20.4369903424
  H        25.0786590306       -3.0334489756       19.6760462944
  O        16.0743537039       -1.9025411012        3.4928483850
  H        15.4414986050       -1.1343827761        3.7316170551
  H        15.5327223217       -2.7193952356        3.4395337747
  O        18.4892633945       -2.1494816162        5.0095297770
  H        18.4499943069       -2.6630239381        5.8180374986
  H        17.5779234855       -2.1122656855        4.6546669793
  O        23.2928350180       -7.3429257691       14.2422496488
  H        24.1550114492       -7.0090561918       13.8934296939
  H        22.7401424648       -7.5656564411       13.4646992491
  O        26.5506509284      -10.6590465977       10.7871807204
  H        26.3144130713      -10.6461279470       11.7445491013
  H        27.1677365665      -11.4144303343       10.5763579964
  O        24.7133589581       -4.8614966616       19.4574592649
  H        25.3929464666       -5.5449990203       19.7974681988
  H        23.8638290441       -5.3616590864       19.2991663076
  O        14.1184834645       -6.6947474926        8.1008737434
  H        13.7075465781       -7.4302393695        8.6041070537
  H        14.5458191887       -6.2567476158        8.8880725446
  O        17.8220669007       -9.9103231312       16.0797513584
  H        18.5483566528       -9.2075121375       16.2690974832
  H        17.2545020648       -9.5887769149       15.3444699239
  O        14.0661616132       -4.0471866644       10.9000135252
  H        14.4951636842       -4.8863709386       11.0950641763
  H        14.0646187920       -3.5278326357       11.7147111841
  O        19.0743700631       -0.0263957244       19.2960908117
  H        18.7358362049       -0.6804750013       18.6172877244
  H        18.2720905017        0.3051789352       19.8597199831
  O        18.4559147534       -5.6802484283       10.3327236124
  H        18.8776293428       -6.3258290799        9.7006282677
  H        18.6800419717       -6.1043980178       11.2133099560
  O        17.3659198089       -3.3942600895        7.8677511070
  H        17.0542856943       -4.3308399053        7.6968280293
  H        18.2196279996       -3.4411388164        8.3731695092
  O        29.5486122600        1.3551549567        8.1348931973
  H        28.9870047517        1.5243775594        7.3443714643
  H        29.0538049448        0.6931584977        8.7290491687
  O        24.3771966941        2.8176624412        5.6933670369
  H        23.6324735210        3.0463808650        6.2498223935
  H        24.5752997274        1.8476080808        5.9667736698
  O        24.3905326920       -3.5793058151       16.7077134241
  H        24.2209366112       -3.8531886305       17.6379546860
  H        23.8492486991       -2.7512877849       16.6083913915
  O        25.0327523612       -8.3883567380        9.4211384700
  H        24.1995231079       -8.5740950069        8.9021225330
  H        25.3410498612       -9.3034544713        9.6396772625
  O        22.1560626552       -6.3330377562       19.0194643328
  H        21.4642087633       -6.5214908671       19.6376820591
  H        22.0899919474       -6.9941011138       18.2658876983
  O        22.3657081938       -9.3400471427        7.9218360919
  H        22.1570156529      -10.1101774656        8.5286702892
  H        21.7317192010       -8.5977367257        8.0838455887
  O        14.1453310215       -4.2066690319        2.8928682462
  H        14.4914327623       -5.0816257109        3.1714849334
  H        13.4335649787       -4.0602861458        3.5481718558
  O        20.8708838123       -1.8620474412       20.4901995608
  H        21.6339992612       -1.6854585944       21.1144277040
  H        20.2972383108       -1.1826226266       20.2066538079
  O        21.5698728480       -3.6919733144       18.0374795147
  H        21.4946148448       -4.6496497246       18.2305942486
  H        21.3381196620       -3.1463785241       18.8331696844
  O        16.0908982257        1.7640004649        5.5246996320
  H        16.8660337836        1.9111440509        4.8689762118
  H        15.7026242387        2.6669076979        5.6470295204
  O        20.6838305134       -2.5100123337       15.7336121130
  H        21.2206482943       -3.0121614464       16.3401153666
  H        19.8796344001       -2.2131725217       16.2361107230
  O        24.7822134481        0.2513247446        5.9122710423
  H        25.5638024754        0.2113353853        5.3113084261
  H        24.9250275784       -0.3743748936        6.7119760870
  O        23.1394604093       -1.5151846209        9.5166175904
  H        23.3068324169       -1.8510162373       10.4566731506
  H        23.8505354432       -1.8117491150        8.8408894511
  O        20.1877909889       -1.4078934972       11.9838358662
  H        19.8773691564       -1.9687577972       11.1990976892
  H        21.1390721016       -1.6657800446       12.1322675298
  O        14.5007333168        0.1522861910       16.7107663425
  H        14.3592566167        0.7877679294       15.9704118035
  H        15.1775706909        0.7456809440       17.3059639571
  O        14.8081640122       -2.3745121008        8.9894298656
  H        15.5398332335       -2.5571177739        8.3806074218
  H        14.6064168335       -3.1814466796        9.4819755162
  O        29.1933174135       -5.9175133355        6.9863919977
  H        29.5867595536       -5.6663118580        6.0034404460
  H        28.2099297618       -5.9995228420        6.9526421935
  O        15.6942163374       -6.1802756049       10.3744665840
  H        15.7424939658       -7.0993246321       10.6729082807
  H        16.6057997394       -5.9827391269       10.1366586960
  O        12.0066631831       -5.6722131003       10.2876538690
  H        12.1423590022       -5.4362295309        9.3743088396
  H        12.6485324602       -4.9762547667       10.7101719295
  O        18.1964078412        2.9721732494       10.1195303886
  H        17.9262768187        2.6552788595        9.1934566427
  H        18.7721883770        2.3004999240       10.4991093430
  O        20.2393286887        2.0882810759        5.7135018085
  H        19.6407324466        1.3930792978        6.0149289210
  H        21.0325305960        2.0108552418        6.2655262031
  O        19.2979824828       -6.7448419643       12.7407125296
  H        19.3698218772       -6.1292389220       13.4728923439
  H        19.6918956185       -7.5992590816       13.0440882696
  O        17.5185135548       -5.7796893850       16.8706024657
  H        17.9797276597       -6.6952068026       16.9343092404
  H        16.6459492639       -6.0457001458       16.5441660443
  O         8.6792166852       -6.7981597619       15.9007180763
  H         8.2211774654       -5.9985584253       15.5798360049
  H         9.5467651272       -6.8588785510       15.4479312124
  O        25.2250314072        2.2851054745       13.2694045084
  H        24.4665456781        2.3981224416       12.6485149970
  H        24.7127182726        2.3267032929       14.1359461748
  O        19.3354002833       -4.7215565756       14.9709906900
  H        18.7302665646       -4.8983321751       15.7194819851
  H        19.8575597572       -3.8938712695       15.1814421773
  O        26.9419008503       -8.4611556116        5.8608683600
  H        25.9854108490       -8.6995967195        5.8512021887
  H        27.1358799196       -7.8521747814        6.5873467175
  O        11.4679459692       -9.7407720910        3.1242213817
  H        11.4920425147       -8.8263600282        2.7645448396
  H        11.7877310997       -9.5920432783        4.0244641625
  O        16.8306948533       -8.0596389127        1.6139355410
  H        16.3629597691       -8.3007488489        0.7884673569
  H        17.4905150685       -7.4617348703        1.1757698464
  N        17.9424401573       -1.9601522150       13.9753076300
  H        17.1496021344       -1.6223541659       14.5694969648
  H        17.7609402100       -2.2511657155       12.9887495025
  H        18.1353840227       -2.8709007836       14.3968432328
  H        18.7834532433       -1.3289900339       14.0888126632
