     194
 CELL 12.4294 12.4294 12.4294 90.0 90.0 90.0 i =    42820, time =    21410.000, E =     -1097.1229455622
  O        -2.4977878540        2.0931032956       10.2735328173
  H        -3.1961337105        1.9371652325        9.4927657009
  H        -1.6005113891        1.7916539251       10.0170022811
  O         4.5395755180      -10.3189674316        6.7063905795
  H         4.1496536484       -9.5475144106        6.2336452125
  H         5.2190464035      -10.6110684590        6.0611285164
  O         0.1345339478      -10.1809829380       10.2691879520
  H         0.2102265913       -9.2543689497        9.9628889373
  H         0.6262925064      -10.7212734898        9.6291579333
  O        -4.6635435208       -1.1879129756       10.9737256321
  H        -4.9887655557       -2.0691497676       11.3007796470
  H        -5.2310359382       -0.4757197139       11.3726886964
  O       -11.6118622723       -7.5308446668        9.9735876187
  H       -11.3531505067       -7.0152405388       10.8231439087
  H       -10.7946787105       -7.9666437637        9.7095076688
  O         4.5068218797       -3.3301495312       17.9233777433
  H         4.8851532558       -2.4946709509       17.4765568567
  H         3.9312338299       -3.0544828753       18.6601309054
  O         0.7421186967        2.6921433827        0.6099552524
  H         1.6859748547        2.9523434787        0.7299662894
  H         0.5870778983        2.5867839000       -0.3311896905
  O         2.9333160061        3.4145719665        9.0209404053
  H         3.5519971438        2.6016183256        9.0923801747
  H         3.4867543639        3.9843684753        8.4025032352
  O        -2.4329447728       -3.9589894482        2.9897099791
  H        -2.6924694660       -4.8811294710        2.7055681593
  H        -2.6251740423       -4.0793189882        4.0090696140
  O         1.3419885027       -0.8841747951        5.3462855959
  H         0.7228334605       -1.3548129372        6.0493861154
  H         1.6178257670       -1.6103774351        4.7525281900
  O         3.3445565156       -5.4825074107        1.6388050860
  H         4.3236523682       -5.3331925668        1.5283616403
  H         3.3552513337       -6.0135081269        2.4437094165
  O        -1.8440649355        3.5054124481        5.5921604892
  H        -1.3473832123        4.2635952217        5.1348089650
  H        -1.0844360616        2.9141342354        5.9601510166
  O        -5.9899082052        0.5484196919       12.5083219705
  H        -6.8772681228        0.6983894417       12.8536109005
  H        -5.3813442605        1.2567660121       12.8258875744
  O         3.0739300238       -5.9577838060        7.2433658392
  H         3.9241283355       -5.5809929910        7.0486603713
  H         2.7493788924       -5.4982808848        8.1290232406
  O        -0.2253994518       -1.5621807951        7.4698283106
  H        -0.4642338197       -2.5187790750        7.6019072299
  H         0.0327410984       -1.3488155797        8.3755911465
  O         4.7666725662        1.2210066638        9.5741890668
  H         5.3476854328        0.7085478283        8.9543510196
  H         5.0225775889        0.9996381411       10.4635016514
  O         3.5801035439       -2.2533740755        8.1234047088
  H         2.9070848688       -2.7262207221        8.5982677317
  H         3.1221325480       -1.4001711182        8.0046318314
  O         3.2143253222        3.8635073355       13.3851492970
  H         3.8583610979        4.2145067745       12.7629257463
  H         3.4802238154        4.1963856017       14.2846236620
  O         2.3491814181        4.1610971030        5.6226652158
  H         1.7378685221        3.5756524927        6.0562698756
  H         2.4665813633        4.9739700092        6.2753755851
  O        -2.8242168920       -8.0440341129       12.2464953374
  H        -1.8494013701       -7.9190549716       12.4919521611
  H        -2.8479012404       -8.6860932509       11.4900202938
  O         3.7685831302        1.0718782107        0.5005361536
  H         3.3688785339        0.6805008681        1.3434948272
  H         3.7202053448        2.0258267720        0.8070134267
  O        -1.0853393482        6.2302996383        8.8780080103
  H        -0.2059325240        5.8486794786        9.2663704852
  H        -1.5903801689        5.4323848946        8.5728684525
  O         6.1493436300       -2.1960219911       13.7331863939
  H         5.3359757005       -1.9296974534       13.2200961019
  H         6.7805444416       -1.4660766495       13.5394262680
  O        -3.1614320340       -1.6271898036        1.9381386843
  H        -2.4828407673       -1.0721092146        2.2831466406
  H        -2.8112176879       -2.5286835457        2.1633445034
  O        -3.3150255860        2.0658352248        3.6859046729
  H        -2.6614560953        1.3500839574        3.4254921407
  H        -2.6971207323        2.5885877194        4.2171363286
  O         5.8485268179       -4.8104938650        8.8766952509
  H         6.0257964582       -5.6568148493        8.3710305728
  H         6.1114598006       -4.0567023868        8.3186521303
  O         9.2653181917       -7.6886852164        7.5769496984
  H         8.5982695670       -8.2814162906        7.9897885309
  H         9.5981729270       -8.1961557629        6.7650394011
  O         3.6278166947       -2.3109486096       12.3721202374
  H         2.7764708819       -2.4652053184       12.7848874256
  H         3.3871554642       -1.7007301042       11.6256259060
  O        -3.2930291144       -4.4637563932        5.5220852515
  H        -3.9764901055       -5.1570822468        5.6054578887
  H        -2.4770815555       -4.6910557135        6.0659297936
  O         1.3213817131       -5.7673209536       12.1009098322
  H         2.1058964434       -5.6283661072       12.6326103867
  H         0.7462791240       -4.9463321888       11.9990555126
  O        -5.4612106373       -0.5732911700        8.5456825008
  H        -5.5371770457       -1.2026598872        7.8080510972
  H        -5.0925688377       -0.9714929412        9.3532451974
  O        -0.5208896681        0.4005473642       14.4175316829
  H        -0.0571454284        1.1540481752       13.9492267136
  H        -0.2907549661        0.5443957652       15.4173035039
  O         1.1881934109       -4.7478469326        5.5249351876
  H         0.7141089797       -5.4502545739        5.0363024874
  H         1.8918334637       -5.2156686451        6.0483134758
  O        -2.4726833134       -0.2561102122        6.1977880834
  H        -3.1402317054       -0.7285613465        5.7065864045
  H        -1.9502592009       -0.8174293495        6.8228410110
  O        11.7932280006        0.8982862186        4.5588738870
  H        11.1567767311        0.5315234721        5.2370161845
  H        12.6432656919        0.8308426985        4.9741406462
  O         8.0439051647        2.3508847714        1.1577657022
  H         8.3931078811        2.1161573965        2.0099810196
  H         8.7106746442        2.9679020713        0.7538854137
  O         6.2585181638       -4.8626159288       13.6473128947
  H         6.4729069146       -4.6452652336       12.7056688495
  H         6.4000453651       -3.9564641380       14.1323601864
  O         7.0093764490       -6.1711888235        6.7246920799
  H         6.9124699850       -6.8775056532        6.0557968811
  H         7.7059756744       -6.4544374133        7.3103506741
  O         1.9749823591       -3.0045843554       16.0329717731
  H         2.9413241670       -3.1877928589       16.1325813041
  H         1.5554497339       -3.6763677068       16.6839339503
  O         6.5161948648       -7.8108890900        4.5228322978
  H         6.7837914526       -8.7725839842        4.6808746094
  H         7.1975336744       -7.2851754093        4.0284989317
  O        -5.0974965346       -4.1277440460       -1.2723602088
  H        -4.1678183617       -4.5541246271       -1.3525717478
  H        -5.4962666830       -4.4129160398       -2.1962621303
  O         3.0134617345        0.1122358876       15.3002692520
  H         3.6835208620       -0.3092939087       15.8911325657
  H         2.2968935779        0.3820261297       15.8701178973
  O         0.6814010081       -2.1793136743       13.6647728113
  H         1.1366822069       -2.6044575957       14.4371565218
  H         0.4641134373       -1.2530272669       14.0427540046
  O        -0.1141453965        5.2553628481        3.9614161278
  H        -0.3717656970        5.1452309608        3.0089126388
  H         0.6884945892        4.6833346245        4.0541866513
  O         2.3009540224        0.0589805648       10.7478916928
  H         2.6851432255        0.5045943420       11.4964509358
  H         2.9409746452        0.4561403268       10.0110053235
  O         7.0519432003        2.1364215598        5.3673835944
  H         7.8604682369        2.0702403046        4.7706179426
  H         7.4740385352        2.1414613575        6.2847633118
  O         5.4262471285       -1.3525596168        4.1358903572
  H         6.0481294863       -0.9557416334        4.7517649213
  H         6.0109094956       -1.5226246035        3.3543760105
  O         2.3907542589        0.6707635622        7.3735024423
  H         2.2516699044       -0.0305600321        6.6534478565
  H         3.3031833081        1.0663879476        7.2112947251
  O        -0.6202716438        4.9893383732       13.4078556824
  H         0.0214918807        5.5685932813       12.8942291931
  H        -0.1914417414        4.0929573691       13.3057654674
  O        -4.1157566654        1.5592952652        7.8171775873
  H        -3.4326076555        1.1172951404        7.2634117563
  H        -4.7484634870        0.7657866909        8.1347959781
  O         8.2979335240       -1.6581565616        4.5233851419
  H         8.3238386403       -2.6538656452        4.4433261444
  H         8.5617269617       -1.3686514200        3.6507960830
  O        -1.0406815312       -4.4006431048        7.1222439700
  H        -1.1617580938       -5.1982076604        7.7418210903
  H        -0.2913223361       -4.7274136489        6.5567949636
  O        -5.5755774768       -2.9786483058        7.1293641047
  H        -4.7234827078       -3.4466927528        6.8379998193
  H        -6.3452511178       -3.2104170167        6.4733071043
  O         0.5729413791        2.5517014155        6.9622755106
  H         0.3305973428        2.8106001158        7.8572990252
  H         1.2315329280        1.7630816919        7.1240165244
  O         3.9191335648        4.6299216399        3.4406121378
  H         4.9135065946        4.6310675153        3.6419224795
  H         3.5280557296        4.4785379022        4.3183138888
  O         2.0014249328       -4.4683923638        9.3221416787
  H         1.0401395464       -4.5986763412        9.5496556726
  H         2.5829774322       -4.8686310112       10.0608636854
  O        -0.4007500095       -3.5386774514       11.6556744549
  H        -0.2369114968       -3.0103606064       12.4959388503
  H        -1.3375192128       -3.9107228293       11.5944384590
  O        -8.3922720186       -4.8400426928       11.0944768215
  H        -7.7889342655       -4.5931320855       10.3937009108
  H        -8.6460185741       -3.9816355375       11.5078078743
  O         6.4358048786        4.1446903519        8.9816240275
  H         6.3515533820        4.7727075912        9.6944360448
  H         6.1204992849        3.2923917009        9.4521413686
  O         0.0241852865       -1.1212749297       10.2163234782
  H        -0.0616886402       -1.9819025873       10.7519350234
  H         0.9736778959       -0.7782016686       10.4446618686
  O         8.4686547969       -6.4033937847        2.2196513590
  H         8.5856227465       -7.2399016196        1.7643382777
  H         7.6149781038       -5.9800166599        1.8254302846
  O        -6.9856239419       -7.2605569607       -0.7821545289
  H        -7.4034163163       -6.3977712209       -0.8239274131
  H        -6.1729876915       -7.0045290770       -0.2698579626
  O        -2.4538146508       -5.2744585169       -1.4846629791
  H        -2.6758165409       -6.1172593802       -0.9775199291
  H        -1.9812003767       -5.6325727298       -2.3559039009
  N        -2.1459435374       -0.0155642054       11.9235579879
  H        -2.5718786990        0.8810347178       11.3687641092
  H        -1.3539765897       -0.4653238689       11.3520022882
  H        -2.8954082832       -0.6939447864       12.1084455158
  H        -1.7039129601        0.3791274695       12.8225207363
