     194
 CELL 12.4294 12.4294 12.4294 90.0 90.0 90.0 i =    78020, time =    39010.000, E =     -1097.1201136780
  O        13.9642259460       -0.0181264798       12.2392064106
  H        14.2006631113       -0.9598719373       12.0670617285
  H        14.7496792541        0.4086600194       12.6977712247
  O        19.6973892853      -10.8714633750        9.5053885268
  H        18.9739660469      -11.1287837467       10.0601224575
  H        20.3022231213      -11.6197105612        9.2451191154
  O        17.9933291101      -10.4053086599       11.9018591296
  H        17.8702235570       -9.8115828182       12.6602920026
  H        17.9094543561      -11.3214916318       12.2092936049
  O        11.8948619973       -3.0018285097       13.6799051896
  H        11.6392975467       -3.7925447913       14.3027993363
  H        11.1223678345       -2.2749920890       13.8118768407
  O         5.5799880075       -8.0711928253       13.3359014470
  H         6.0825163732       -7.9242255948       14.1319259794
  H         6.1917210286       -7.7344542708       12.6279344134
  O        22.5970135473       -6.2904026411       23.4562879837
  H        22.6373109279       -6.7421435453       22.5399642669
  H        22.4081833084       -5.3575862140       23.3476669980
  O        15.7760534307        0.7209544535        1.9652145897
  H        15.6341860357        1.5920660202        2.4327030944
  H        16.7946743278        0.6735756366        1.9930737930
  O        21.4318802385        2.7481093168       11.2272043761
  H        21.1154881587        2.3821089919       10.3653121029
  H        20.8489186952        3.4923491411       11.4486093895
  O        13.3963784553       -6.7335015353        3.6387310988
  H        13.2862666536       -7.3546231894        2.7987629246
  H        13.1861306447       -7.2757211780        4.4769509610
  O        17.3020460920       -2.8405015363        9.3869506074
  H        17.0901956366       -3.7550280680        9.7714081979
  H        18.2118820041       -2.9306741621        8.9802321284
  O        17.8486529910       -7.5575468007        3.9934497722
  H        18.6394859413       -6.9924309190        3.7087635520
  H        18.2780204824       -8.4173845213        4.2410384388
  O        13.5426521668        0.8993972757        9.5355199437
  H        13.2525207168       -0.0502506015        9.3455522264
  H        13.9598106833        0.8797994988       10.4458005493
  O         9.1759252885       -1.2533023191       13.8845955906
  H         8.7054702291       -1.4567653636       14.7098697212
  H         9.1957525370       -0.2142216866       13.8872977218
  O        19.6788278231       -6.6436314602       11.1462332756
  H        20.5909643342       -6.7695053438       10.8268799331
  H        19.6981836157       -6.0191589979       11.8614830868
  O        14.9949971983       -2.7158722657       12.1654554130
  H        15.5654737106       -2.9025117639       11.4567517939
  H        14.8849836256       -3.5469864681       12.6313687426
  O        20.1179788965       -2.7783018825       12.2917997777
  H        20.7230268748       -3.0888033365       11.6254884365
  H        20.7133624026       -2.2526936285       12.9573557339
  O        19.7428775619       -4.9820580585       13.6485262701
  H        19.3201802584       -4.8492902521       14.5400276889
  H        19.8047070362       -4.0696124359       13.2762889534
  O        18.8719726934        0.5612756545       14.7550321358
  H        18.9203865121        1.2877233016       15.4107566614
  H        19.6119993807        0.7387547987       14.1172408282
  O        17.3306372668        5.3113678158        9.4272241882
  H        16.7859815088        4.5163419049        9.6023579844
  H        18.1666283730        5.1838277747        9.9364263874
  O        11.9506604672      -11.5352254850       13.7384272147
  H        12.4161907405      -11.7456032503       12.9038135890
  H        11.0543347250      -11.1879799410       13.5539159227
  O        21.1449178435       -1.9450659343        4.3032896358
  H        20.3593416511       -2.1773831697        4.8122122234
  H        21.5685789344       -1.1955882984        4.7958106264
  O        13.5598404239        4.0571024356       11.3724328524
  H        14.4058564504        3.6423521134       11.1099827078
  H        12.8650021866        3.5014314138       10.8608301032
  O        22.9235657646       -1.5246493345       19.7364021842
  H        23.8626225815       -1.6959022100       20.1965211031
  H        22.8983261650       -2.3117831946       19.2137630941
  O        12.3966532055       -3.5337564497        6.3144611971
  H        12.0552356462       -3.9266070346        5.5148272020
  H        12.3034471192       -4.2002767625        6.9950717007
  O        15.5875292795       -1.5637430278        5.4176960501
  H        15.6272183557       -2.0904964053        6.3187309788
  H        14.7157218290       -1.2335987967        5.4537907223
  O        21.9666808783       -6.4085623824       13.8593397156
  H        22.3729272985       -6.3532938655       12.9577672709
  H        21.1619681931       -5.8592765702       13.8130750903
  O        24.0026032131       -9.6501075188        9.8176628079
  H        23.2307058472       -9.6600072820       10.4979831601
  H        24.2981357224      -10.5955282403        9.8346011427
  O        21.4042795289       -5.3020304389       20.0333037981
  H        21.6158827215       -5.1041070209       19.1020897417
  H        20.5783488831       -5.7964187128       19.9614026927
  O        12.2703541170       -6.0709240617        7.8965358762
  H        11.2973221493       -6.2592707714        7.9989609887
  H        12.6158050274       -6.1042309271        8.8344892362
  O        15.4933323665       -9.1128755492       15.6059987187
  H        16.2507856162       -8.4279763660       15.7402943462
  H        15.0063034415       -8.8184157508       14.8224645137
  O        12.0224534591       -3.3693445185       10.7052547867
  H        12.5479229269       -4.2382458013       10.6329522836
  H        12.1879890783       -3.1987093462       11.6801838608
  O        17.1977856872        0.7730788124       18.7081245279
  H        16.6065206757        0.1408570615       18.2428057769
  H        16.6044496518        1.2340292001       19.3984365206
  O        16.1731469266       -5.0687283527       10.7091348743
  H        16.5556639084       -5.7617228455       10.1741790471
  H        16.2304599923       -5.4340136942       11.6300412091
  O        15.1526706235       -2.5853767609        7.8432298043
  H        15.3506126223       -3.4851752512        7.5491357612
  H        16.0120839944       -2.2994526533        8.3878374214
  O        27.7353373791        2.0859254480        7.9181119282
  H        27.2624330645        2.1968495236        7.0577667766
  H        27.0283612379        1.5171265621        8.4121872847
  O        22.0646130146        2.8988308652        5.3877496095
  H        21.4779325533        3.1525974384        6.0737149248
  H        22.2829356411        1.9129158964        5.3533583991
  O        21.9036726083       -4.4789655844       17.4444569996
  H        22.5084548131       -5.0148426215       16.8868925266
  H        21.7877414493       -3.5922829485       17.0751876737
  O        22.4411075422       -7.7228300031        8.5969982484
  H        21.5552507977       -8.1273033579        8.3039640370
  H        22.9545252695       -8.5418657069        8.7719173428
  O        18.8319665611       -6.7516308880       19.4225618880
  H        18.1326956839       -6.7626324306       20.1340946749
  H        18.3296067848       -6.5412717064       18.6022544305
  O        20.0469318702       -9.1744503341        7.2100258936
  H        19.6903896730       -9.6479262444        7.9388829678
  H        19.3772771762       -8.3975979469        7.0650780001
  O        11.4868066942       -5.0410307961        2.8929272706
  H        12.2250223349       -5.5993104099        3.1808315492
  H        10.8295283249       -5.6399507731        2.3533028287
  O        19.0428772842       -1.7953444951       19.6507892462
  H        19.8149898012       -1.5754598691       20.2668074781
  H        18.4691157481       -0.9804597915       19.6916465599
  O        18.0071972234       -3.1588908849       17.4238786120
  H        17.1666598256       -2.6132845178       17.3114330557
  H        18.3324378112       -2.9190348554       18.3675026684
  O        13.7528369054        2.2609558205        5.1947459415
  H        14.3423839196        2.6167583507        4.5668254643
  H        12.9679316770        2.8501618122        5.3279430515
  O        18.0863667536       -2.2281994370       13.9673485717
  H        18.2915418197       -1.4274426839       14.4464011855
  H        18.0221787566       -2.0327134065       12.9931838956
  O        22.5277031313        0.4206959049        5.2234250133
  H        23.4214963419        0.2393098857        4.8449954556
  H        22.6551076863       -0.3044414412        5.9421848298
  O        21.1839368439       -0.6517175651        9.2477072546
  H        21.0827390700       -1.4825201178        9.7467660956
  H        21.8745526504       -0.9129731148        8.5190085194
  O        17.9050616205       -0.8108148782       11.3475050304
  H        17.6443816111       -1.4213820780       10.5878921888
  H        18.9018658166       -1.1191938786       11.4044507323
  O        12.7407334135        0.0848825293       16.4159311167
  H        12.7338168158        0.4908960508       15.5668876632
  H        13.2424403755        0.7640254786       16.9311568427
  O        12.7077231695       -1.6827584548        8.7895480064
  H        13.5669580072       -2.0751528988        8.5461174798
  H        12.4915365455       -2.2058334720        9.6424579061
  O        27.6117893407       -5.1593954041        7.1133585118
  H        28.0797741922       -5.4661506958        6.3363949717
  H        26.6742865935       -5.3381520172        6.8943335039
  O        13.4441184295       -5.7257914757       10.2866803155
  H        13.4605027722       -6.4540936928       10.9710201013
  H        14.3733138141       -5.4028317042       10.3492459721
  O         9.4039615826       -3.7080815420        9.9918683482
  H         9.3667162515       -4.0932242856        9.0813575238
  H        10.3654267677       -3.5440891038       10.2403431395
  O        15.9185894794        2.9910630071       10.4398271059
  H        15.9328779581        2.5506788226        9.5573452688
  H        16.5957558048        2.4640117054       10.9269960056
  O        18.6842768697        2.4618694752        4.8124626888
  H        18.0405362631        1.8403173597        5.2418102997
  H        19.4385310543        2.3605045396        5.3668190553
  O        15.8306234458       -6.2480380545       13.5913566385
  H        16.1229362074       -5.4959187205       14.2383944435
  H        16.7014892702       -6.7037923550       13.6605185892
  O        15.9788765872       -5.8566064290       17.0270970595
  H        16.7329699821       -6.4280275024       16.8371428645
  H        15.1915121651       -6.0874165152       16.4463439003
  O         6.8565201000       -5.2635856657       16.3506346771
  H         6.2137816780       -4.6773604811       16.8440974953
  H         7.7664350708       -4.9791164735       16.6415374809
  O        21.4520332996        1.6529290069       13.7854216619
  H        21.6732023796        2.0168549755       12.8706213433
  H        21.4052290782        2.4189406494       14.4176225537
  O        16.3136365800       -3.7948354001       15.0821718458
  H        16.5437674782       -3.9897156518       16.0130507269
  H        17.0304505876       -3.2010310928       14.6763296236
  O        24.4242088901       -8.1703612482        5.5793950781
  H        23.5368312788       -8.6946104879        5.6248585716
  H        24.4546658929       -7.7820437566        6.4890473044
  O         8.5335309763       -8.7178197197        2.8987582836
  H         9.0099710765       -7.9501241732        2.5414187473
  H         8.9745539289       -8.9286412844        3.7846247701
  O        13.1303243584       -8.6112034586        1.6978291765
  H        12.7545703804       -9.4958404738        1.6325987596
  H        13.3956765309       -8.4210131254        0.7429152009
  N        14.3719389029       -2.0204998155       14.8207491759
  H        15.0610171542       -1.2645196590       14.6479616611
  H        14.8614497299       -2.9206068443       15.0642181459
  H        13.7366781882       -2.1082936181       14.0237270130
  H        13.7805607910       -1.7658896605       15.6351542420
