     194
 CELL 12.4294 12.4294 12.4294 90.0 90.0 90.0 i =    75220, time =    37610.000, E =     -1097.1168736604
  O        13.6419826534        0.3882839248       12.4984282507
  H        13.6601361704       -0.6358775289       12.4931829165
  H        14.6063945396        0.6665204435       12.4833928416
  O        17.7437285060      -10.5908170781        8.6770983823
  H        16.9369722488      -10.3542801103        9.1487685259
  H        17.6816687342      -11.6122125870        8.5815192641
  O        16.1792039360      -11.2306155983       11.6993027554
  H        17.0027244904      -10.8212998046       12.0765213992
  H        16.4867543477      -12.0006188716       11.1102806502
  O        10.4484318983       -2.7804127221       14.3516580008
  H         9.9900081577       -3.5187735358       14.8256702533
  H         9.7681120167       -2.0365032811       14.4535667554
  O         5.2009078707       -9.7438253956       13.5854242676
  H         5.0248556229      -10.1466219855       14.5215481894
  H         6.1584056579       -9.5263759040       13.6144614576
  O        21.0601347138       -5.7664937522       23.3175676254
  H        21.4347934232       -6.2995998551       22.5528321770
  H        20.9522879578       -4.7842530371       23.0203628720
  O        14.3953310599       -0.3687063097        3.3336377261
  H        13.9480771365        0.4874341400        3.2578925584
  H        15.1491924775       -0.4400748218        2.6813832360
  O        19.6640561018        2.0952850605       10.5247482210
  H        19.0769872761        1.8847607458        9.7321771110
  H        19.4419731372        3.0360128954       10.8054416420
  O        11.7456973831       -6.7351036503        2.8584756752
  H        11.6153527051       -7.3762740488        2.0801011771
  H        11.6124254305       -7.2507818189        3.7091925564
  O        15.7968622283       -3.0919141779        9.5987186622
  H        15.7031524060       -3.8553105721       10.2419266462
  H        16.5522019044       -3.3610765958        8.9989281686
  O        15.8250756175       -7.6428890530        4.1754126074
  H        16.7022697379       -7.3115404075        3.8763056374
  H        15.8891625599       -8.2323881817        4.9743047329
  O        12.2119623883        0.6476842251        9.9436485216
  H        12.0747039567       -0.3123622795        9.8522728989
  H        12.9267872634        0.7950155465       10.6055906975
  O         8.4027641587       -0.9539577135       14.5818359723
  H         7.9119612941       -0.7279631259       15.3806064775
  H         8.6765690250       -0.1192091304       14.1593699035
  O        18.4717977405       -7.0063008523       10.9960091863
  H        19.3131779877       -6.4300349223       10.9722071532
  H        17.9730603459       -6.8498115542       11.8499244539
  O        13.4132207824       -2.2785888274       12.4577687157
  H        12.7213197592       -2.6453587007       11.9086661010
  H        13.7606519214       -2.8935055293       13.0983788832
  O        19.1064647964       -2.2207523263       12.6692537095
  H        19.6308811200       -2.5152854667       11.8632926757
  H        19.8156564314       -1.8477654966       13.2618957229
  O        18.2267896890       -4.6555367443       13.7681306920
  H        17.2575102071       -4.4604719340       13.5905268709
  H        18.6144455793       -3.7701256817       13.5865427319
  O        17.8710118357        2.1988212641       16.3350223743
  H        18.7936091576        2.5037848345       16.3943140834
  H        17.4735107768        2.6301830035       17.1218239519
  O        16.5219492372        4.6104961758        8.9948604288
  H        16.0265051644        3.9528474766        9.5688418801
  H        17.2558982195        4.9648705455        9.6103521738
  O        11.9023579358      -11.3640365878       14.3417242018
  H        12.5835725237      -11.8711231013       13.7982486505
  H        11.0655568289      -11.2888203345       13.7611389734
  O        18.5189766218       -0.4397401861        3.6706004970
  H        18.8523757711       -0.7932301448        4.5014113199
  H        18.3269830894        0.5197868434        3.8675637108
  O        12.1819486071        3.9971045250       10.8015887087
  H        13.0192767635        3.5920809359       10.5853753752
  H        11.4501701929        3.5273762712       10.3122176825
  O        21.3791642737       -1.5397423648       20.6941258476
  H        22.3415641718       -1.3653151171       20.9404184292
  H        21.3680844760       -2.3046469090       20.0718120091
  O         9.1967026146       -3.6147090692        6.6818595389
  H         9.8310625078       -3.4407840801        5.9074640987
  H         9.7837830603       -4.2646937560        7.2100015693
  O        11.6668584230       -2.1072725752        5.8017729139
  H        12.1407319432       -1.9586328773        6.6208427252
  H        11.5951038319       -1.2004032607        5.3747721596
  O        20.6819246582       -6.2856655942       13.8804799955
  H        20.9784877739       -6.1930600305       12.9599484126
  H        19.8451661329       -5.7925333364       13.9594544114
  O        22.4674811916       -9.8683059567        9.9615944298
  H        21.5484380164      -10.0040462481       10.2663256184
  H        22.9797123915      -10.7352984882       10.1716911262
  O        18.3146288974       -3.6847203415       20.5419644061
  H        18.9666394042       -3.5490273299       19.8356790609
  H        17.8861827790       -4.4967399478       20.1295154253
  O        11.1157552667       -5.2975043968        7.8180994106
  H        10.4471694794       -6.0246412709        7.8895762225
  H        11.5816024409       -5.2215566812        8.7101796465
  O        14.5615072505       -9.8957783870       15.2936140919
  H        15.1926587828       -9.1571348766       15.6133533703
  H        14.0171127775       -9.4645895397       14.6062778436
  O        10.8416532854       -3.4555121354       11.4899572108
  H        11.1563297634       -4.4131898711       11.4523552574
  H        10.6237138154       -3.2333032115       12.4295040826
  O        15.5306095551        0.4186993880       18.3464986285
  H        15.0432282369        0.1062055640       17.5263796816
  H        14.8427524018        0.7267354679       18.9932324780
  O        15.0936744877       -5.6790029572       11.0971289897
  H        15.4799742794       -6.2668260609       10.4469271641
  H        15.1484140568       -6.1152695615       11.9980736379
  O        13.5846095687       -2.7264047171        7.8184753482
  H        13.5551693652       -3.6137099293        7.3151944589
  H        14.3632309668       -2.7676005942        8.4247037373
  O        26.2568864046        1.6050790201        7.8692857410
  H        25.4944872493        2.1063356820        7.3659750886
  H        25.5617984458        1.1004671313        8.4806368919
  O        20.4142395158        3.1607198363        5.0721159330
  H        19.8980978604        3.7393594914        5.7152399712
  H        20.5885972823        2.3041274441        5.5294605709
  O        20.3012137203       -5.8429271798       18.1040755069
  H        20.9435378893       -5.7409279112       17.3259540587
  H        20.5244439504       -5.1108349170       18.6889215114
  O        21.9655402976       -7.4532607294        8.3114971505
  H        20.9998349552       -7.7322261559        8.0034045532
  H        22.3187235415       -8.2782250591        8.7410436576
  O        17.3658380757       -6.1713855739       19.2449328014
  H        16.5532114629       -6.6454900044       19.5942471158
  H        17.1162050326       -5.5957982605       18.4386045866
  O        19.3591924620       -8.0460461010        7.5700025359
  H        18.6893531712       -8.5671866313        8.0213843982
  H        18.8737888203       -7.2088864602        7.2817167560
  O         9.5799691824       -4.9911999925        3.4160605812
  H        10.4467990297       -5.5290922964        3.2426870108
  H         8.9931442186       -5.4098145983        2.6806317608
  O        17.7783301735       -1.6225013978       18.5127616028
  H        18.1270246294       -1.4703719074       19.4289031243
  H        17.0724458646       -0.9476658189       18.2915288978
  O        17.3046105809       -4.1241481364       17.4987228782
  H        17.3246197808       -3.9856508836       16.5000414475
  H        17.5359450052       -3.1460499498       17.8869980073
  O        12.6282213516        2.5931000509        5.2695745189
  H        13.4256845262        2.6842752428        4.6730753640
  H        12.0443889790        3.3603584861        5.2134687998
  O        16.5081058355       -1.3521216405       14.5280607967
  H        17.3421396678       -1.0641136171       15.0194100056
  H        16.6058116883       -0.7059885382       13.8182340499
  O        20.9414149042        0.1032293460        5.6987833483
  H        21.7930096932        0.2822089328        5.2779418879
  H        21.0129984539       -0.1361339993        6.5978960047
  O        18.6067261598       -0.7087875089        8.4139939642
  H        18.3031317483       -0.9676345502        9.3493298329
  H        19.5958106086       -0.6689400691        8.5640920950
  O        17.3193103276       -1.1057122007       10.6279821305
  H        16.5943863983       -1.8129319792       10.5082675042
  H        17.7117608179       -1.3153553523       11.5121776105
  O        11.1787672894        0.3681540710       16.9346905343
  H        11.2125460327        0.5560904348       15.9333804251
  H        11.6117702392        1.2638351869       17.2433333601
  O        11.4590091554       -1.9522420858        9.1158808239
  H        12.2630386824       -2.2507171395        8.6377675017
  H        11.2379881516       -2.6972552156        9.7545668273
  O        25.4480402009       -4.6225408564        5.8810347633
  H        25.6807776166       -5.2946038707        5.1142215995
  H        24.8199989289       -5.0326896206        6.4372119544
  O        12.3174124063       -5.6124590239       10.5920194867
  H        12.2326199664       -6.5839727719       10.6551447433
  H        13.2988308807       -5.3997686820       10.6882006315
  O         7.7983752381       -3.2797972921       10.2267632964
  H         7.1357795244       -3.5685237576        9.5435920644
  H         8.4325744800       -2.6313228039        9.7524073193
  O        14.8262777832        2.9067181673        9.9320925706
  H        14.4470990988        2.2628368229        9.1850248767
  H        15.3903327320        2.3927351226       10.5582432475
  O        16.4730972304        3.0723116336        6.1469886011
  H        16.0439332061        2.1330441211        6.2035789877
  H        16.6846253291        3.2406295744        7.0981734894
  O        16.6761960367       -7.2007452788       13.1204054601
  H        17.0799518924       -6.7493891780       13.8914477572
  H        16.8236347068       -8.1277787930       13.1622331599
  O        14.0158079120       -5.6295289173       15.7103841212
  H        14.7217807623       -6.2524583001       15.9711792786
  H        13.2291085863       -6.1068653860       15.3217001680
  O         5.9388583568       -6.6788457046       15.9071612446
  H         5.9105265153       -5.7444237931       15.5845914854
  H         6.3121641128       -6.5405170180       16.8127456221
  O        21.5851435185        1.3907564267       13.0745896582
  H        20.7043186393        1.2450879221       12.6627984135
  H        21.4023747963        2.2441088371       13.5084010172
  O        15.5619579917       -4.1527094557       13.8824186614
  H        15.1097743291       -4.7855696587       14.5150886426
  H        16.1269052735       -3.5480569552       14.4883663903
  O        22.8649700509       -8.0933666684        5.1254501771
  H        21.9381405639       -8.4783795298        5.0307438300
  H        22.8397522580       -7.6196469308        5.9927520763
  O         8.0143029581       -8.9346909173        2.2532190776
  H         7.9729190662       -7.9839083794        2.0935033829
  H         8.0822378718       -9.0578923745        3.1712151525
  O        12.2978593859       -8.6222435932        1.0531443057
  H        12.2956868527       -9.5608451753        1.3707079847
  H        12.2907587103       -8.6767883568        0.0632513693
  N        13.0705376885       -2.8409881468       15.7170539715
  H        13.5955504486       -1.9943856639       15.4474513873
  H        13.5670581173       -3.6846806511       15.7080490316
  H        12.3085689906       -2.9056742234       14.9363134839
  H        12.5681193478       -2.6365274812       16.6403701391
