     194
 CELL 12.4294 12.4294 12.4294 90.0 90.0 90.0 i =    54420, time =    27210.000, E =     -1097.1226011695
  O         3.2181620830        1.6200196481       11.3924922878
  H         2.8524544205        0.9280380837       10.6982758124
  H         4.1502806879        1.7579477589       11.2577142609
  O         9.0198543850       -9.5781641578        9.6018303490
  H         8.3181849094       -9.0914056427        9.1715511530
  H         9.1727743657      -10.4110677658        9.0729301384
  O         6.1301792675      -10.8798586694       11.2218526404
  H         6.7593258609      -10.2007461195       11.4996005377
  H         6.6670537650      -11.7572903588       11.3535868875
  O         1.1119480389       -1.9108787040       12.2162569321
  H         1.0299098661       -2.8308512711       12.5240816765
  H         0.2603307025       -1.4980565626       12.4192754061
  O        -4.8892485315       -8.5408631188       12.4803928103
  H        -4.9627115832       -9.1838202615       13.2206478120
  H        -3.9405467086       -8.4009918331       12.4748581267
  O         7.5030108657       -3.8052619220       20.0484422639
  H         7.4646766714       -4.4657423371       19.3804718068
  H         8.4716536472       -3.6565682502       20.3568888605
  O         5.3047946816        1.4068908865        1.5773201923
  H         5.0500943977        2.3778270281        1.7434636884
  H         5.5147660289        1.2867907877        0.6424965369
  O        10.2944375014        3.9313263550       11.7630780028
  H         9.9318798217        3.5787978958       10.8939554042
  H        10.5993472284        4.8674057522       11.5434914113
  O         2.6661415540       -4.1981394110        2.8708646081
  H         2.2187226329       -5.0489482387        2.5286865235
  H         2.7650591187       -4.1694084788        3.8199917052
  O         6.0844060821       -1.3714501000        7.1003181937
  H         5.4867930179       -1.6280531508        7.8324575961
  H         6.7241552176       -2.1521032295        7.0148809555
  O         7.5046468125       -7.1593261937        3.3240848036
  H         8.0829242600       -6.6792753615        2.6707977617
  H         7.9812340991       -7.9453966607        3.6174403465
  O         2.2693726139        2.7377678906        8.2621103735
  H         2.0989374846        2.5520965282        7.2420986869
  H         1.8200538721        1.9235763171        8.6514316739
  O        -1.0106034429       -0.3406494876       12.6396889179
  H        -1.6929276285       -0.5298501263       13.3080497216
  H        -0.7272128777        0.6410373112       12.9188110227
  O         6.3773207454       -6.0411326917        9.2582938625
  H         6.8253676745       -5.1920653871        9.0348315087
  H         6.2334942024       -6.1326874606       10.2361678299
  O         4.2921162096       -1.9631921937        9.3646739956
  H         3.9920122938       -2.8690774902        9.1368409087
  H         4.6678346609       -2.0645301923       10.2284702189
  O        10.0575531997       -1.2346232628       10.2618504836
  H        10.6065004734       -1.9201215239        9.8126212851
  H        10.5651667014       -0.8000343159       11.0335297182
  O         8.6120069775       -4.3623460830       11.3245874633
  H         7.8964716670       -5.0110263070       11.6993374778
  H         8.1495178790       -3.4739797544       11.1616364454
  O         8.4877427844        2.1721381431       14.5448664526
  H         9.3470130315        2.6097670739       14.7877305533
  H         7.9832856679        2.0699789329       15.3658303670
  O         7.5930634737        4.4683300943        7.9479947989
  H         7.0607435812        3.9035587445        7.3133616871
  H         7.1238917432        5.1768717496        8.3411334585
  O         1.4925110122       -8.9595619865       12.3554247253
  H         2.2038360109       -9.6106428988       12.0386512098
  H         0.8744628156       -9.6159641037       12.9015601348
  O         9.0847760144       -0.6585791212        1.5312163211
  H         9.2507542676       -1.1318902564        2.4110036082
  H         8.7933702109        0.2573160635        1.7055474333
  O         3.4827169191        6.4920243557       10.8975488142
  H         4.3347996841        6.2300235485       10.4199809389
  H         2.7821339435        5.8151725933       10.5470264243
  O        11.6572987652       -1.3364283282       18.0631619565
  H        11.4891452421       -1.9685670371       18.7947087307
  H        12.0897612191       -1.8151747800       17.3232504272
  O         0.6319607136       -2.0898588030        2.9196125777
  H         1.2132895716       -1.3181432953        2.7612573888
  H         1.2252428977       -2.8943460567        2.9434635489
  O         2.6689700756        0.2554291522        3.8518785073
  H         3.1669263455       -0.3239402435        4.5220364908
  H         3.0469781265        1.2246590215        3.9305964164
  O        10.7777916889       -5.8904685415       11.1534620462
  H        11.2874597827       -5.9146226071       10.3131273755
  H        10.0633512055       -5.2171412770       11.1074310630
  O        13.9137887732       -7.4937844865       10.0090377222
  H        13.7067173931       -7.9813054226       10.9179758667
  H        14.1689887346       -8.2538724793        9.3950373988
  O         9.5636535611       -3.6942924462       17.5093981898
  H         8.7498720096       -4.2415658483       17.6581095384
  H         9.1517345999       -2.8191194895       17.1786415927
  O         0.5286742808       -4.3422313675        6.5556592736
  H         0.3549662847       -5.1501613439        5.9653999459
  H         0.3109918497       -4.7031515066        7.4331891940
  O         4.7274200850       -8.1967799811       14.7892860302
  H         5.5678015945       -7.6976669631       15.1195778613
  H         4.0166177907       -7.4910338782       14.6886371997
  O         0.1925062107       -2.7180771773        9.5948450629
  H         0.9940300411       -3.0260102918        9.0770415256
  H         0.4079318805       -2.6065406276       10.5190267906
  O         5.9726411531       -1.0586674580       15.2932900313
  H         5.8891971426       -0.1828563302       14.8526101969
  H         5.2171882019       -1.0420655367       15.9339320928
  O         4.7450765685       -5.6150386150        6.4632482220
  H         4.1365947861       -6.4372026971        6.2785675728
  H         5.1629507608       -5.7686151784        7.3392247047
  O         4.3256574730       -1.3593322170        5.0648937973
  H         3.7640047180       -2.1857712302        5.1333784017
  H         4.9377367565       -1.4677918787        5.8127784503
  O        18.3988101960        1.3697988904        5.9621026181
  H        17.9739858961        1.6885969432        6.7583414546
  H        18.4028835669        0.3694039237        6.0930741983
  O        11.5939657917        3.4326120604        5.4130507551
  H        11.4369580593        3.5245116639        6.4115778599
  H        11.9845425971        2.4837399331        5.4499986735
  O        11.7371762830       -4.9919236177       15.5624797592
  H        12.0143946298       -4.4719769784       14.7638124621
  H        11.3452605976       -4.3195295581       16.2408522120
  O        12.0496033645       -5.9970754900        8.7003443148
  H        11.4797289374       -6.6420690728        8.2275814290
  H        12.6744247809       -6.5414015016        9.1347435237
  O         6.8130941621       -5.0021538223       17.4547103377
  H         6.9093739302       -5.8284456547       16.8737497355
  H         5.9700305748       -5.2892734412       17.8983280697
  O        10.4762271365       -8.2115611422        7.6109075747
  H        10.2668272981       -8.6387000320        8.5286349795
  H         9.5675874548       -7.9342537597        7.3898852699
  O         0.2722312472       -4.5649586015        0.4335088421
  H         0.7919290589       -5.3748937690        0.5371998671
  H        -0.4220512959       -4.7742696888       -0.1715125763
  O         8.4473186955       -1.2238060376       16.6962673025
  H         8.9413991064       -0.4778996298       17.1001273386
  H         7.5101086358       -0.9472758663       16.6004386898
  O         7.1222881387       -3.6526335085       14.9517042408
  H         7.0714513132       -3.9285804911       15.8890624223
  H         6.7039364612       -2.7097085525       14.9526185012
  O         3.0654149326        4.6362237904        5.9444136124
  H         2.2648770504        4.9989379254        5.5411013713
  H         3.1424346204        3.7539616140        5.4634962032
  O         7.5833860426       -1.0980506831       11.7183338436
  H         8.0753768969       -0.9367923406       12.5695626395
  H         8.3861462949       -1.4195504266       11.1378313128
  O        13.2270247032        1.0715887363        5.9202109577
  H        13.8797556811        0.7258036603        5.2686430259
  H        12.7774416019        0.4141379749        6.4410185347
  O         9.8121421641        0.9769663149        5.6612805579
  H         9.5346841688        0.5337822025        6.5043912691
  H        10.5316167858        0.4960215429        5.2848036468
  O         8.6678412043        0.1769004625        8.2454103768
  H         7.8618712214       -0.3911205348        8.2579625332
  H         9.2598444728       -0.2360758889        8.9838376609
  O         3.8895568609        2.6504556720       16.8256737364
  H         4.1361655834        3.2113203825       16.0680307127
  H         4.8136688061        2.3175942643       17.1497302743
  O         2.3369525260        0.0638514512        9.4807260758
  H         3.1407071507       -0.5064281719        9.2683457380
  H         1.7559860441       -0.5881641025        9.8518277074
  O        15.3210170244       -3.7331736684        5.5643956836
  H        15.8928279310       -4.4264194437        5.9903610845
  H        14.5229608500       -3.6389122835        6.0800286389
  O         3.0348876337       -4.2628706930        8.8646483541
  H         3.1536245874       -4.8716610039        9.6679831236
  H         3.2665337692       -4.9401961524        8.2079698939
  O        -2.3922994578       -3.1402546850        7.7326202441
  H        -2.3970131014       -3.3948807754        6.7962684098
  H        -1.5353180630       -3.3707467762        8.0805583134
  O         5.0854839496        2.4300806688        8.2603401901
  H         4.1743795632        2.7335468847        8.2281040652
  H         5.2127342702        2.2147066097        9.2155235127
  O         7.8666503348        3.0326975618        4.8743910299
  H         7.2996098750        2.3689209452        5.3296369521
  H         8.8290872315        2.7543837963        5.0012624207
  O         6.5312395266       -5.9485264798       11.9733407762
  H         5.9790397886       -5.5032708122       12.7271961496
  H         6.5104275165       -6.9224908508       12.1478103985
  O         5.0402037405       -4.6908180790       13.8032645624
  H         5.7719041487       -4.3163867474       14.4457886869
  H         4.1790531400       -4.7589020650       14.3402988083
  O        -2.4515960030       -6.5355906759       14.3118496515
  H        -2.8813986730       -6.1979569416       13.5257885694
  H        -1.8457513892       -5.8174555246       14.5738409457
  O        11.8336275587        2.3189216984       13.3549309218
  H        11.3303957785        2.8432723913       12.7217350183
  H        11.3954797380        2.5161987100       14.2275650046
  O         5.1876143431       -2.2506024888       12.2090033092
  H         5.2859038469       -3.1196684290       12.6422892354
  H         6.1472096357       -1.9477512475       12.1052016790
  O        13.1888887868       -6.7053124138        4.5762380005
  H        12.5677807824       -7.4270345990        4.7425276426
  H        12.7943815289       -6.1985442727        3.8404947104
  O        -1.7046155059       -8.9146352462        2.8856007815
  H        -1.8551193166       -7.9672029593        2.5322493557
  H        -1.4150130414       -8.8217033093        3.8231411158
  O         2.4069848462       -6.5716160208        0.8691663576
  H         2.1954282253       -7.5008654578        0.5219794633
  H         3.0126458340       -6.1354545841        0.2328298582
  N         2.9791698970       -0.5162564765       13.5240434411
  H         3.0202740921        0.2755236317       12.8982875729
  H         3.7679909251       -1.1719432110       13.3952858716
  H         2.1220014052       -1.0873187437       13.2340782802
  H         3.0933073595       -0.1425502399       14.5601761397
