     194
 CELL 12.4294 12.4294 12.4294 90.0 90.0 90.0 i =    56420, time =    28210.000, E =     -1097.1570989537
  O         4.3609519888        0.9522545713       11.6822279812
  H         3.8974346059        0.6578600305       10.8896394319
  H         5.3032289854        0.9415361105       11.4109525848
  O         9.7048352367       -9.1791491164        9.4564876066
  H         8.8213320912       -8.6933731626        9.4511398560
  H         9.5362955021      -10.1437111571        9.4111201068
  O         7.3377972843      -10.8417759133       11.5546859905
  H         7.8426283649      -10.0229695850       11.7944660935
  H         7.9805571768      -11.6014514337       11.3918648640
  O         1.7423891170       -2.0979090789       12.4134211787
  H         1.3146201416       -2.8866633179       12.8199503751
  H         1.1202819118       -1.3849448312       12.6547732642
  O        -3.6710071026       -8.7999738661       12.6583843525
  H        -3.6004713731       -9.1306460646       13.5721288197
  H        -2.6770482969       -8.6420021882       12.4369165969
  O         8.8251204393       -3.4700133718       20.3690648768
  H         8.6502160920       -3.7972807272       19.4919500828
  H         9.8452829257       -3.4697358418       20.5069328974
  O         6.4449893898        0.4928362664        2.1260317480
  H         6.2193097599        1.3293253842        2.6117942451
  H         6.9860121929        0.8790125662        1.3226166319
  O        11.4160664153        4.0509246345       11.6932741105
  H        11.1935742390        3.7424961088       10.8212409722
  H        11.5840403246        5.0253263403       11.4607657446
  O         3.8084037275       -5.1278779451        2.2450927457
  H         4.1314077564       -6.0275676575        1.9869341741
  H         3.8408750948       -5.0844417358        3.3065012979
  O         6.8691450861       -1.6280929346        7.8097211807
  H         6.2596808670       -1.9626325239        8.5242334440
  H         7.7428624260       -2.1835939188        7.9053837308
  O         7.7021716170       -7.2748986583        2.9584523604
  H         8.6485104752       -7.1790848779        2.6658968933
  H         7.5836317775       -6.5185156801        3.5600532271
  O         3.7788465064        2.8038595937        8.4578292295
  H         3.4775706447        2.9876332465        7.5409246219
  H         3.6297971904        1.8462392925        8.5014038777
  O        -0.1291952932        0.1031346088       12.3261761126
  H        -0.8839623858        0.0718535293       12.9788552958
  H         0.3047539889        0.9897412829       12.5993287646
  O         7.3382391479       -6.0394402025        9.0523670675
  H         7.8408140182       -5.2353488767        8.8832813602
  H         7.2132938750       -6.1975062393       10.0267660492
  O         5.0897763947       -2.2719577704        9.6276351311
  H         4.5688993942       -3.1459785761        9.4116601546
  H         5.4244884042       -2.4062141836       10.5396500208
  O        10.7989985466       -1.3840189790       10.1630507311
  H        11.4719983924       -1.8377424253        9.5761427269
  H        11.3498641513       -0.7316147214       10.7510106073
  O         9.7473050286       -4.6208793510       11.9223667508
  H         9.0068339575       -5.0768256858       11.4477678625
  H         9.4101792297       -4.2949996114       12.7782708286
  O         9.3541155043        2.2969323712       15.1314704625
  H        10.2571676324        2.7655550646       15.2365791933
  H         8.9263407127        2.1863146949       16.0123894081
  O         8.0144586370        5.2315089957        6.4591070169
  H         7.9857025498        4.2288749962        6.1190831333
  H         7.5496308245        5.3173901887        7.3084241355
  O         3.3237320038       -9.1078172560       12.3446269037
  H         3.6764035573       -9.9506053585       12.0656708254
  H         2.4431863396       -9.4298218175       12.6711107523
  O         9.9978419285       -0.1358243178        1.5491129063
  H        10.2258551345       -0.5130736177        2.4184715335
  H         9.5830597126        0.7258460901        1.7605634583
  O         3.4847026306        7.0848737624       11.8371239460
  H         3.9910346338        7.8450058372       12.2994853548
  H         4.1947313384        6.4022674757       11.8282586603
  O        12.8521106524       -0.3826954225       19.5511916103
  H        13.2744921719       -0.7353704204       20.3507615445
  H        13.3422634391       -0.9081341000       18.8305129206
  O         1.5423795617       -1.8321324813        5.2033822273
  H         2.3114401064       -1.3426198862        4.8120238535
  H         1.8407812957       -2.7173748785        5.4293988993
  O         4.0749545313       -0.7979060651        4.0995742099
  H         4.6437038269       -1.3367750154        4.6814826673
  H         4.1634613342        0.1237484589        4.5121498534
  O        12.1435553531       -5.8581956869       11.3510445464
  H        12.3422229041       -5.9310194303       10.3907590929
  H        11.2579985292       -5.3447280948       11.4487601727
  O        14.4647950591       -7.5904328226        9.9873017839
  H        14.6077716396       -7.7220733518       10.9865621921
  H        14.9389715371       -8.3587338905        9.6929184342
  O        10.8716382919       -3.5167936340       17.6525219239
  H         9.9259988786       -3.8791689476       17.6207019835
  H        10.7334370641       -2.4754353838       17.3994277178
  O         1.9420041085       -4.4872197818        5.9926406626
  H         1.5868185698       -5.3279768593        5.5675220558
  H         1.7489659789       -4.7090725073        6.9083158369
  O         6.1092865515       -9.3103838724       15.5503187153
  H         6.9227272553       -8.7047999228       15.5261819970
  H         5.5304594070       -8.9319292877       14.8004279888
  O         1.3094808299       -2.3276276675        9.7699321957
  H         1.9841889588       -2.8923097682        9.3273505004
  H         1.6452520085       -2.4488627376       10.6709190046
  O         7.7096974458       -1.5216880025       15.7978202403
  H         7.1398000048       -0.8294950379       15.2719463436
  H         7.1614083603       -1.9172613473       16.5337411755
  O         4.9867104102       -6.1540922483        7.5986096045
  H         4.9735598276       -7.0769634777        7.3300233328
  H         5.7175462442       -5.9355471974        8.2248705091
  O         5.8400066481       -2.2438433216        5.3606260789
  H         5.4772509934       -3.1615490409        5.3788808729
  H         6.0871400052       -1.9791278547        6.3386082235
  O        19.3178332300        1.0404893671        7.1355784586
  H        19.3051098021        1.6528758925        7.9213722075
  H        19.5027750672        0.1453805141        7.4987526569
  O        12.5504033298        3.5626619752        5.3097896541
  H        12.0629885801        4.0058076125        6.0530091712
  H        13.1605287270        2.8480321648        5.6599122677
  O        12.2229520412       -5.0854848562       15.7270366294
  H        12.5537656932       -4.7197293430       14.8508137028
  H        11.8451814060       -4.3539632064       16.3151313955
  O        12.8853704337       -5.7851799317        8.3667974053
  H        12.3328117770       -6.4148799141        7.7752801075
  H        13.7676234850       -6.1793337134        8.6725366800
  O         8.3043407432       -4.8555893932       17.3537182017
  H         8.2299511856       -5.6007364160       18.0137299839
  H         7.4095623774       -4.5701445557       17.1594101593
  O        10.8653142717       -7.5606321394        7.3334049602
  H        10.5840682975       -8.1149259458        8.1325524038
  H        10.0426361348       -7.4023013497        6.8471104421
  O         1.1076397917       -4.7071952524        0.9823463591
  H         1.9864522256       -5.0208265871        1.2357834217
  H         0.7488436034       -5.2619379514        0.1845166030
  O        10.2522102989       -1.1281416881       16.6476854008
  H        10.4558680806       -0.3535165474       17.1807967269
  H         9.2885765244       -1.2044241802       16.4561539699
  O         8.8764747624       -3.3134674591       14.3395008569
  H         9.3517226686       -3.8435832727       14.9846480887
  H         8.4249617666       -2.5917946563       14.8741609074
  O         3.9371555323        4.1774419219        6.1185819098
  H         3.3087827135        4.6618315888        5.5448991681
  H         4.1134984204        3.2913711910        5.6308307183
  O         8.4314920089       -1.0527970051       11.7984103271
  H         8.9502536812       -0.8581766239       12.5841273550
  H         9.0669532971       -1.6090229711       11.2818991401
  O        14.5620353985        1.7453618288        6.1645680147
  H        15.2762789064        1.3298678620        5.7445743263
  H        13.9653675349        1.0249818710        6.5563722978
  O        10.4858684911        0.7665590061        6.3551721849
  H         9.9028824342        0.7329401432        7.1648775886
  H        11.3013506359        0.3084111803        6.7203604276
  O         9.3628043401        0.4224831321        8.8545909709
  H         8.3773951598        0.2383635309        8.8836909097
  H        10.0396581145       -0.3727909547        9.3820010412
  O         4.8652023243        1.8091836658       17.5910030912
  H         5.3274327164        2.3893662601       16.9347688422
  H         5.4927172550        1.4574643528       18.2339593550
  O         3.3447098370       -0.0951356423        9.2637647746
  H         4.0432005604       -0.7953472264        9.3040430783
  H         2.6136225003       -0.5417899916        9.6538574256
  O        16.9613906418       -4.7836265664        5.0912968466
  H        17.2950255063       -5.3557351903        5.8866224063
  H        16.0283049175       -4.5780836768        5.3465957109
  O         3.3342877482       -4.5515417097        9.1357809409
  H         3.2575662994       -4.8102989798       10.1267481366
  H         3.7244871485       -5.3481184439        8.7517628611
  O        -0.9697888320       -3.3138907747        7.9097922064
  H        -0.9693561043       -3.3990968441        6.9268611145
  H        -0.3434249158       -4.0118264464        8.2012385293
  O         6.7405431409        2.9776750906        9.1751726796
  H         5.8352775161        3.1182024160        8.9327205056
  H         6.6830193874        2.6517439120       10.0656121097
  O         8.4494928979        2.6789964187        5.7942401038
  H         7.9405498426        1.9116696586        6.1460942546
  H         9.3892648649        2.3685148390        6.0070956696
  O         7.1762266495       -6.5333352876       11.8152440500
  H         6.9303274406       -6.0668480880       12.6401105289
  H         7.6002511863       -7.3644597515       12.1066947606
  O         6.3493233162       -4.7638596885       13.6343413758
  H         7.2400168257       -4.5830296433       14.0606628346
  H         5.5958338497       -4.7495746693       14.2274403276
  O        -2.2868248256       -6.4165561872       14.4574677527
  H        -1.9239138253       -6.5069310301       13.5488405684
  H        -1.6377906480       -5.8387252485       14.8453671386
  O        13.2103558502        2.5595819277       13.1372366299
  H        12.6602651297        2.9388901791       12.4199031917
  H        12.9295486492        3.0159225034       13.9537820816
  O         6.2689145201       -2.4191622153       12.1876059770
  H         6.3527549171       -3.2010773293       12.7371341119
  H         7.0708306973       -1.8029304949       12.0335962125
  O        14.0254774198       -6.7567279809        4.5414165334
  H        13.4211105476       -7.4850425117        4.7988765684
  H        13.5809015593       -6.3249577950        3.8015714306
  O        -0.7630690886       -8.7861849964        2.7773210778
  H        -1.2375574469       -7.9319063781        2.6483149490
  H        -0.3903122805       -8.6311827112        3.6882259708
  O         4.9255882348       -7.5258451793        1.3063795910
  H         4.3102937289       -8.1159064053        0.7493788509
  H         5.7809418911       -7.4333633740        0.7746191720
  N         4.2544551562       -1.0445706409       13.6517791867
  H         4.0081434823       -0.1501798408       13.2247523266
  H         5.0118740329       -1.4934192787       13.1041678803
  H         3.4553185461       -1.6396483127       13.5014399111
  H         4.4361643396       -0.9102433702       14.7103446562
