     194
 CELL 12.4294 12.4294 12.4294 90.0 90.0 90.0 i =    80020, time =    40010.000, E =     -1097.1212732069
  O        16.1661460658        1.1957356070       12.2592479675
  H        16.1736298467        0.2678681549       12.5468970990
  H        16.2479576699        1.6603673401       13.0714560170
  O        20.9115938744      -11.5910024892        9.2023956293
  H        20.2190214377      -11.5732032422        9.8423756125
  H        21.5390773832      -12.4207696408        9.3253902289
  O        18.7963938648      -10.1838847384       11.0604725564
  H        19.1148254150       -9.5741896734       11.8183324162
  H        18.5834180917      -10.9865999778       11.5672076555
  O        12.6312966258       -2.7420365350       13.3903991491
  H        12.3975640706       -3.3859332908       14.1200941067
  H        11.9919666509       -1.9915026710       13.6248174666
  O         6.8582275305       -8.4812954339       13.4616600972
  H         6.9447964405       -9.3096269315       14.0031961797
  H         7.8196434699       -8.3019657456       13.4365845779
  O        23.5555511859       -6.3305781624       23.9348185315
  H        24.3198360886       -6.9691504225       24.0598640705
  H        23.9753225013       -5.5084322617       23.5462999218
  O        17.3793015261       -0.5549322048        2.1192526977
  H        17.0837723536        0.3569128939        2.3264147855
  H        17.9056208701       -0.5353593304        1.3051709138
  O        22.4580487073        2.7114352720       10.4887337890
  H        21.8068369582        2.2444946207        9.9336295007
  H        22.1921887573        3.6142277534       10.4371692675
  O        14.0378905600       -6.5877348208        3.4348942672
  H        14.3240287841       -7.0981077800        2.6332654623
  H        13.7219286726       -7.1938998410        4.1336459135
  O        17.2681532251       -2.4915300584       10.2961577021
  H        17.4448620386       -3.3866899146       10.7137468025
  H        18.0194158355       -2.3013705980        9.6540480972
  O        18.6023123958       -8.2680659053        4.6690483816
  H        19.2649333056       -7.7241324396        4.2171347535
  H        19.1132095622       -9.1133983357        4.8703693233
  O        14.4068372093        0.1731481963        9.5483897622
  H        14.0494598535       -0.7347167068        9.3153445140
  H        14.9123709581       -0.1031193902       10.3280903279
  O        10.2623024306       -1.0949846212       13.5029429394
  H         9.8274692329       -1.0847939623       14.4200774748
  H        10.3711976573       -0.1169877911       13.3677933139
  O        20.3196698430       -6.6126527921       11.1301812118
  H        21.0625938173       -6.0994930487       10.7342536568
  H        20.0231749559       -5.8945393850       11.7712488183
  O        15.0269951949       -1.3181585647       11.8565453289
  H        15.4513950778       -2.1621765405       11.6348931754
  H        14.0701990609       -1.4043549221       12.0049286697
  O        20.9829507263       -2.8429655732       12.1090499713
  H        21.1909503310       -3.0866274536       11.1606390593
  H        21.7657808758       -2.2895024785       12.4526586840
  O        19.9408499123       -4.8320011542       13.2752959917
  H        19.9041117295       -4.7646657739       14.2558522677
  H        20.3875604622       -3.9520362036       13.0271395271
  O        19.8551425390        1.6082466826       14.8053311695
  H        20.0716591916        1.7270521937       15.7515101473
  H        20.6202558787        1.2739061396       14.3214596999
  O        18.1100745419        5.8343279149        9.2938805567
  H        17.7399304431        4.9729699826        9.3857411900
  H        18.7988925740        5.9361083162        9.9865529524
  O        13.2449809885      -11.6314114583       13.4992380821
  H        13.9021242837      -11.1441216024       12.8870293945
  H        12.3636437619      -11.1915056384       13.3728820185
  O        21.8997945627       -1.2172464636        3.5066297577
  H        20.9408043104       -1.1853471991        3.8469149646
  H        22.4346252203       -0.5175597466        3.9303459902
  O        14.5585569935        3.8627981174       11.2396479379
  H        15.3984847513        3.8718507760       10.8347043872
  H        14.0279342027        3.2313168291       10.6670250928
  O        23.9344099355       -1.7602954260       19.4601406249
  H        24.7191416022       -2.0182560521       20.0327209129
  H        23.6067813208       -2.5029070318       18.8443526115
  O        14.2260056563       -3.6400294669        5.2859334287
  H        13.5021946659       -2.9987876949        5.4353758720
  H        13.7864863720       -4.5095831322        5.4944759221
  O        16.4458160091       -1.5794279762        5.4078768372
  H        16.0394920054       -2.1986023485        6.0872584917
  H        15.6711200355       -1.0927662495        5.0638947122
  O        22.5803540020       -6.1518001328       13.8984824552
  H        22.9487195702       -6.0519403587       12.9953727442
  H        21.7084701902       -5.6870599614       13.7784262757
  O        25.3133967757      -10.0669239040        9.8253902253
  H        24.3389995996      -10.1352907457       10.1731677497
  H        25.7322879073      -10.9398720592        9.8653652932
  O        22.2670950974       -5.1472366349       19.4356871325
  H        22.4485896740       -4.5632927708       18.6156176780
  H        21.5606823951       -5.7820456094       19.2631882660
  O        13.0544093696       -5.3548953390        7.0250213924
  H        12.4468001150       -6.0332827699        7.3939051019
  H        13.9245932752       -5.5650666888        7.3658803094
  O        16.3251595795       -9.7860376865       15.1128329531
  H        17.3079073560       -9.5668113905       15.2126004104
  H        15.8391542842       -9.0467960868       14.5816028180
  O        12.2491333445       -3.8581469701       10.8167327305
  H        12.9898404490       -4.4653737001       10.5306530870
  H        12.3996585461       -3.5635538498       11.7732652119
  O        18.0733045159        0.1884886827       18.9747407358
  H        17.4209956778       -0.4197140220       18.5030234569
  H        17.5066294911        0.9162703396       19.4057329286
  O        16.8119848387       -5.0189748028       11.2194629595
  H        17.2061704160       -5.5357114229       10.5289200281
  H        17.1181306615       -5.4874471988       12.0476828226
  O        15.6540686231       -2.8924906227        7.8566972250
  H        15.5551541391       -3.7387262406        7.4464607528
  H        16.2783868787       -3.0960471607        8.5907668565
  O        28.3110570598        1.4546374428        7.7404578603
  H        27.8639594411        1.6782150908        6.8813687830
  H        27.7270894432        0.9589160564        8.3711774939
  O        23.0345640153        2.7237414760        4.7234167339
  H        22.5795018188        2.7917097578        5.6063905804
  H        23.2496425583        1.7802307233        4.6928047017
  O        22.8032282280       -3.3965227980       17.1434061426
  H        23.5133451957       -3.8247779488       16.6332020679
  H        22.6087701363       -2.5567306073       16.6631609672
  O        24.3347295895       -7.8500921817        7.9759650953
  H        23.4561067501       -8.3237438241        7.7888073650
  H        24.7355549431       -8.5362269044        8.5551262590
  O        19.8249702257       -7.1707401183       19.6203988231
  H        19.2336090742       -6.9655389604       20.3522086032
  H        19.1024668090       -7.1945944798       18.9622218354
  O        21.5579310319       -9.5772828963        7.4446803344
  H        21.3226559249      -10.3956390778        8.0112774979
  H        20.7775800710       -8.9733465542        7.2579051719
  O        11.9201945845       -4.9001143431        2.8107596488
  H        12.7654526808       -5.3888745979        2.9912861057
  H        11.2404444874       -5.4395441819        2.1521872167
  O        18.9473799954       -1.9494581042       20.6722304432
  H        19.9122721226       -1.6297141393       20.8488225839
  H        18.4669264189       -1.2013711511       20.2568073270
  O        18.7125216041       -4.1029412446       18.4676819667
  H        18.0345085114       -4.7285953211       18.6905536444
  H        18.8162103178       -3.3918845430       19.1667864651
  O        15.0529544664        2.0723129787        5.0246604125
  H        15.5279832129        2.4612450327        4.2053811179
  H        14.2727932540        2.7039065515        5.1039882716
  O        19.2364727367       -1.2730537312       16.4344398737
  H        18.7518480769       -1.5968534917       17.2332949665
  H        18.5067403337       -1.0658492628       15.8214599623
  O        24.0714889390        0.0420684561        4.9928732207
  H        24.9192952895       -0.0117307872        4.4593142065
  H        24.1404540924       -0.5349775449        5.8089013359
  O        21.9909344791       -1.6336033554        8.7003181949
  H        22.0346531173       -2.5809634392        8.9555623346
  H        22.8049593928       -1.5862420865        8.1362157969
  O        18.7910743632       -0.6838517620       11.8151671715
  H        18.0438325998       -1.1705765038       11.3212397579
  H        19.5015798397       -1.3631790269       11.9866053556
  O        14.0689428241       -0.0986205857       16.2540213624
  H        13.9582441920        0.2942128675       15.2607748717
  H        14.4023833149        0.7685014825       16.6905638298
  O        13.3527083659       -2.2702277548        8.8547021096
  H        14.2322034136       -2.6835216452        8.6780831488
  H        12.8499800056       -2.6773614972        9.5992120799
  O        28.2855415126       -5.8218236627        7.4972845139
  H        28.4957610039       -6.5190706908        6.8445205532
  H        28.8789656722       -5.8943305110        8.2422229019
  O        14.3060662636       -5.8707825596       10.2736686835
  H        14.1314330122       -6.8590000513       10.5853915303
  H        15.0710488937       -5.6131025803       10.7655505079
  O         9.6022210090       -4.1431816373        9.5220357621
  H         9.6949320772       -4.4236482486        8.6182209161
  H        10.4915583408       -4.0737743203        9.9468913151
  O        16.9420662499        3.5026687106        9.4898983826
  H        16.5191207885        2.8989158040        8.8317726190
  H        17.2907266856        2.9213991343       10.2359007731
  O        19.8333301799        1.8365932448        5.1037671742
  H        19.2474813739        1.0060030347        5.3824972709
  H        20.4996917134        1.8762326467        5.8077248604
  O        17.5308785144       -6.4939576618       13.4838840294
  H        17.8441043452       -5.8066474078       14.1585760606
  H        18.2666503762       -7.2060272321       13.3555130392
  O        16.6764252318       -6.3290218448       17.3074130731
  H        17.0731654820       -7.2256781298       17.1671226530
  H        15.8643173708       -6.2779320843       16.7338172096
  O         8.0810650158       -5.0590335635       16.6589065819
  H         7.7794554614       -4.6556839136       17.5430561589
  H         8.9125274958       -4.6213217977       16.3812098429
  O        22.7484607345        1.6889260164       13.0770078046
  H        22.5627997650        1.9292976019       12.1075015240
  H        22.4629216215        2.4605647551       13.6395377692
  O        17.8421243766       -4.3802068630       15.7503619025
  H        17.4591130493       -4.7970961673       16.5862339042
  H        18.5662852028       -3.8204028387       16.0893176590
  O        25.5074146354       -8.3504201681        5.2225840400
  H        24.6138449231       -8.7685963974        5.1416983763
  H        25.6562185463       -8.2032281900        6.2029447873
  O         9.6256947916       -8.6717398479        2.3073434561
  H         9.6956089755       -7.7114268411        2.1449442753
  H        10.1747935432       -8.9513841710        3.0535837239
  O        15.1833654294       -7.8552725110        1.3695123510
  H        14.8265983708       -8.1639326645        0.4905670576
  H        16.0178011497       -7.2583628863        1.2481551272
  N        15.5559538423       -2.7750330540       15.2205848878
  H        14.9613284898       -3.2134495034       15.9969475388
  H        15.0643265218       -2.7793089564       14.2690225809
  H        16.4983092451       -3.2740359775       15.1649314271
  H        15.8599000817       -1.8043064267       15.4700152196
