     194
 CELL 12.4294 12.4294 12.4294 90.0 90.0 90.0 i =    46420, time =    23210.000, E =     -1097.1045167969
  O        -0.8126318454        2.0502055457       10.4005332038
  H        -1.5144372276        1.8364730465        9.7156567058
  H         0.0298921321        1.9742050200        9.9481616026
  O         5.6013056053      -10.2742291227        6.5820547894
  H         4.7890060784       -9.8185182671        6.4435381177
  H         6.0924798189       -9.8987098522        5.8367757621
  O         2.2059061149      -10.6171344731        9.9015224975
  H         2.7205509748       -9.7900514067        9.6274122639
  H         2.7723039508      -11.2714010593        9.4019260943
  O        -3.4565402123       -1.7218182399       11.6950048299
  H        -3.1252085387       -2.5003087777       12.2489229320
  H        -3.9234812238       -1.0742699577       12.2873392991
  O        -8.6739026837       -7.8029529197       10.3624907844
  H        -8.7005572705       -7.8269552931       11.3950637322
  H        -7.7097821038       -7.9211681475       10.0862151701
  O         5.1416103728       -4.1881858084       18.5275398398
  H         4.8859092267       -3.7655125585       17.6582467384
  H         5.6955672080       -3.4545175547       18.9295177836
  O         1.6945977601        1.9090721096        0.4554386575
  H         2.4255686829        2.4900895317        0.7938728340
  H         2.0182914238        1.6743977532       -0.5470925147
  O         6.3852575539        4.1427975104        9.4245135770
  H         6.3609893094        3.1715268043        9.2036655379
  H         6.8381496517        4.5930626454        8.7025143340
  O        -0.2183835463       -3.5494937466        2.4254180011
  H        -1.0396181794       -4.0527166321        2.5682441007
  H         0.3231929437       -3.7248583895        3.2258301841
  O         2.8537069938       -1.7371906192        6.6298195664
  H         2.0957316793       -1.7352258544        7.3581859409
  H         3.3585966243       -2.5621571038        6.7748966748
  O         4.2670526998       -6.1389377712        2.0666296154
  H         4.8352722770       -6.2048137812        1.2538642940
  H         4.5536616711       -6.8859288722        2.6299230399
  O        -0.2513357676        3.5143373887        6.9031749517
  H        -0.1699859713        4.1923351222        6.1728890403
  H        -0.6566264269        2.8020329950        6.3017085941
  O        -4.6866900028        0.2348881761       13.2560253502
  H        -5.4294344012        0.2413255386       13.9643608469
  H        -4.1326544193        0.9901459387       13.5229870740
  O         3.0398816824       -5.5170519422        7.3514990341
  H         3.8198003563       -5.1272439258        6.9215582053
  H         2.6719002797       -5.0147780138        8.1370222178
  O         1.0133194423       -1.9982255609        8.4822947276
  H         0.4163804868       -2.7973816164        8.5132549142
  H         1.4557302366       -1.8346480338        9.3642205887
  O         5.9548458614        1.4427727858       10.2372693928
  H         6.2871385995        0.6213116935        9.6989872244
  H         6.5022578776        1.4441352375       11.0462240736
  O         4.8026675200       -3.3151237453       10.1180831057
  H         4.0067791561       -3.8918976956       10.2432570833
  H         4.6488339869       -2.5770553817       10.7194699760
  O         4.5767790808        2.9279846014       13.4916194672
  H         5.4835441679        3.3624071110       13.3965137853
  H         4.4099272778        3.1710430170       14.4036351209
  O         3.2353882089        4.3085796702        6.1663667700
  H         2.6904982550        3.4867721159        6.3517544908
  H         3.3095937053        4.7931262382        6.9997256442
  O        -1.0914896174       -9.0469025156       12.8366075962
  H        -0.1045672974       -9.0687617918       13.0568681796
  H        -1.0500073530       -9.4172759350       11.9519543738
  O         5.0513309913       -0.0241597684        1.3247195549
  H         4.5424001239       -0.5014559350        2.0080885314
  H         4.7071469889        0.9182466317        1.3718760758
  O         0.0653261265        6.4328209974        9.7403123275
  H         0.8376748852        5.8626612856        9.6019753125
  H        -0.7032686638        5.8432066657        9.5456002091
  O         8.3454555605       -2.0892552577       15.4106239523
  H         7.5444992619       -2.3325047410       14.8398979699
  H         9.0435565017       -1.6222304415       14.8788023460
  O        -1.4590564659       -1.1000504796        2.3262118053
  H        -0.9227423450       -0.4463170063        2.8305036838
  H        -0.8897640356       -1.8986267866        2.1977627993
  O        -0.6604482313        1.1245225091        4.0383001465
  H        -0.0983893915        0.6611066209        4.7087043778
  H        -0.1332551143        1.8033404174        3.6379713902
  O         7.0722696379       -4.8317967112       10.1469395747
  H         7.0280871666       -5.4330946807        9.3667771672
  H         6.2741052418       -4.2153720299       10.0340562660
  O        10.3588062974       -7.4335594660        8.7603697685
  H        10.0019814592       -7.9980294533        9.4920572327
  H        11.0152041021       -7.9527118049        8.2601229569
  O         6.1981510959       -3.0305506106       13.5265238538
  H         5.2677955460       -2.8192738176       13.5356472448
  H         6.3950725783       -2.7059907613       12.6195630625
  O        -3.1726384615       -4.1655712418        6.4212934458
  H        -3.7072479154       -4.9340695633        6.8690671807
  H        -2.5178947346       -4.0132391647        7.0758421887
  O         1.9288955318       -7.3445449992       13.1311598099
  H         2.8307112703       -7.0533453915       13.5406199007
  H         1.5543069837       -6.4543015311       12.8819470176
  O        -4.8815990987       -0.4675388962        9.0293166297
  H        -4.8936120907       -1.0130086046        8.2123922806
  H        -4.3907086673       -0.8958972908        9.7746118766
  O         1.6343420593       -0.3647057884       14.6578313686
  H         1.4820646484        0.3778461214       13.9776478233
  H         1.9101904111        0.1902365785       15.4260082194
  O         1.2835333823       -4.6645234740        5.4915661998
  H         0.6995572714       -5.4576278119        5.2959772928
  H         1.9894906744       -5.0765439322        6.1037527672
  O        -0.9924025418       -0.2149189017        6.8413747257
  H        -1.3420626164       -1.0203367197        6.2269947639
  H        -0.2854749734       -0.6224261837        7.3788865539
  O        14.9338127416        1.4878732090        4.1899119591
  H        14.6380855973        1.4966231807        5.1357890518
  H        15.7339591113        0.9148480053        4.3510889446
  O         9.2415073984        2.3948875884        2.0629646338
  H         9.8148580124        2.2356349154        2.8558776334
  H         9.9398864101        2.5121396511        1.4064639281
  O         9.9114208610       -4.8300281478       14.8428093959
  H         9.5460470084       -4.6701949783       13.9123396490
  H         9.4115880299       -4.3400301023       15.5194647361
  O         8.1080133370       -6.5907313462        7.4894651675
  H         8.1696583022       -7.1131052488        6.6584692744
  H         8.8896138005       -6.8958471369        7.9738600157
  O         3.3710190952       -3.8789977313       16.1313422569
  H         3.7743031328       -4.6957287877       15.8056282396
  H         2.4885854070       -4.1311203490       16.5731117588
  O         7.9498631093       -8.1476554592        5.1089885032
  H         8.4019068720       -9.0062525449        5.1760212740
  H         8.2651818110       -7.7926061663        4.2917112373
  O        -3.1426925559       -4.7106198830       -0.1792548703
  H        -2.5136947243       -5.4616815206       -0.4553631009
  H        -3.9411588148       -4.7910120803       -0.7715999470
  O         4.5131609084       -0.2719425324       16.8182810172
  H         5.5058238448       -0.0391500277       16.9415513169
  H         4.2070658781       -0.8621627887       17.5158310076
  O         3.2110508381       -2.3821744631       13.8643705262
  H         3.1911217120       -2.8019533964       14.7803211783
  H         2.5471970454       -1.6354799613       13.9762708565
  O        -0.0067712595        5.2535377727        4.8550124472
  H        -0.8224945307        5.2709154067        4.3193910477
  H         0.6978511644        4.7999375027        4.2965628734
  O         3.9669200440       -0.8700197550       11.3684907995
  H         4.3712126721       -0.6416636579       12.2457324919
  H         4.3802641981       -0.1983299482       10.7507505527
  O         9.3806303484        1.7342949223        5.4686914114
  H        10.2236848760        1.4766133948        5.0724851731
  H         9.4309747968        1.3937911314        6.4030738674
  O         7.4593454872       -0.2738802661        4.7161542924
  H         8.2846771131        0.1906503726        4.9409430604
  H         7.6790490609       -0.8181004218        3.9224743507
  O         4.0237988256        0.3695633343        8.0542583088
  H         3.8507933506       -0.5007956342        7.5632480279
  H         4.9136095092        0.7111453273        7.7308097638
  O         1.0422618203        3.6091305002       15.3155678082
  H         1.1231540013        4.2705470906       14.5512237453
  H         1.8849438843        3.0620235955       15.5274117002
  O        -2.6252853910        1.2204625287        8.4717085562
  H        -2.0001920640        0.6069664005        7.9334883803
  H        -3.2311377774        0.6602981427        8.9596467022
  O        10.6495415390       -2.1772932152        5.1590799871
  H         9.9096675958       -2.7781645114        5.3352016176
  H        10.6737514186       -1.8175365795        4.2199418773
  O        -0.5149220884       -3.9508835228        7.7200177512
  H        -0.3876599327       -4.7334667712        8.3742314711
  H         0.1705769608       -4.1343890011        6.9433836621
  O        -5.0441057938       -2.0503250719        6.8507212144
  H        -4.3197187534       -2.7194831654        6.6771752467
  H        -4.9995887637       -1.3338359289        6.1995742185
  O         1.9642723106        1.8023128683        6.8837386082
  H         1.2980797333        1.9707576205        7.5316358676
  H         2.7244659294        1.3144571141        7.3440172517
  O         4.8189951290        4.0450479045        3.9207679492
  H         5.7318444962        4.2295766675        4.1121372997
  H         4.3240204416        4.1600849128        4.7526427733
  O         2.8039273596       -5.0074709716       10.1789217291
  H         2.2654681600       -5.0486570255       11.0761836142
  H         3.3044362456       -5.9230152770       10.1369773286
  O         1.5161211510       -4.3709898314       12.5531026879
  H         2.2023583834       -3.7485070509       13.0398944115
  H         0.7422533479       -4.4213714929       13.1428220801
  O        -6.0553232894       -5.8987916662       12.6079792320
  H        -6.0017954327       -5.6156677385       11.6885722083
  H        -6.1838028715       -4.9975894759       12.9851382716
  O         8.8588838747        3.2842780978       10.8130507006
  H         7.9967727693        3.5291813378       10.4255651808
  H         8.8386924503        3.6635710654       11.7479541819
  O         1.4839251315       -1.8021148516       11.0239553600
  H         1.3114577549       -2.7457327095       11.3041253577
  H         2.3743172617       -1.5335622455       11.2654959954
  O        10.4465102058       -7.3456650162        3.0117192768
  H        10.7747772230       -7.8786910568        2.2620048414
  H        10.2919690197       -6.3983286616        2.6564389026
  O        -5.3616310090       -8.5665165417        1.1594169017
  H        -5.1533418099       -7.6549283861        0.9363348070
  H        -4.5045333284       -8.9449553958        1.5711072333
  O        -0.8186464834       -6.0797996039       -0.1391881735
  H        -0.7484084339       -6.9464967486        0.2657384044
  H        -0.3138869157       -6.2246152318       -1.0072668627
  N        -0.9129025865       -0.2815592336       12.0183965946
  H        -0.7786620816        0.5749163214       11.4522002603
  H        -0.0976579228       -0.8717995443       11.7327043553
  H        -1.8594616187       -0.7807029986       11.8075821200
  H        -0.8700512570       -0.2482472583       12.9886922894
